version 3
run VoIP-0-20220428-00:36:34-269061
attr configname VoIP
attr datetime 20220428-00:36:34
attr datetimef 20220428-003634
attr experiment VoIP
attr inifile omnetpp.ini
attr iterationvars ""
attr iterationvarsd ""
attr iterationvarsf ""
attr measurement ""
attr network MultiCell
attr processid 269061
attr repetition 0
attr replication #0
attr resultdir results
attr runnumber 0
attr seedset 0
config image-path ../../../inet4.3/images:../../../simu5G/images
config output-scalar-file results/VoIP--0.sca
config output-vector-file results/VoIP--0.vec
config sim-time-limit 10s
config repeat 1
config *.ue*.numApps 1
config *.server.numApps 4
config **.ue1*.macCellId 1
config **.ue1*.masterId 1
config **.ue2*.macCellId 2
config **.ue2*.masterId 2
config *.ue*.app[*].typename VoIPReceiver
config *.ue*.app[0].localPort 3000
config *.server.app[*].PacketSize 40
config *.server.app[0].destAddress "\"ue11\""
config *.server.app[1].destAddress "\"ue12\""
config *.server.app[2].destAddress "\"ue21\""
config *.server.app[3].destAddress "\"ue22\""
config *.server.app[*].destPort 3000
config *.server.app[*].localPort 3088+ancestorIndex(0)
config *.server.app[*].typename VoIPSender
config *.server.app[*].startTime uniform(0s,0.02s)
config image-path ../../images
config output-scalar-file-append false
config sim-time-limit 20s
config network MultiCell
config **.routingRecorder.enabled false
config **.scalar-recording true
config **.vector-recording true
config seed-set 0
config **.cellularNic.channelModel[0].downlink_interference true
config **.mobility.constraintAreaMinZ 0m
config **.mobility.constraintAreaMaxZ 0m
config **.mobility.initFromDisplayString true
config **.numBands 6
config **.ueTxPower 26
config **.eNodeBTxPower 40
config *.configurator.config "xmldoc(\"./demo.xml\")"

par MultiCell.server.pppg$o[0].channel typename "\"inet.node.ethernet.Eth10G\""
par MultiCell.server.pppg$o[0].channel disabled false
par MultiCell.server.pppg$o[0].channel delay 5e-08s
attr unit s
par MultiCell.server.pppg$o[0].channel datarate 1e+10bps
attr unit bps
par MultiCell.server.pppg$o[0].channel ber 0
par MultiCell.server.pppg$o[0].channel per 0
par MultiCell.server.pppg$o[0].channel length 10m
attr unit m
par MultiCell.router.pppg$o[0].channel typename "\"inet.node.ethernet.Eth10G\""
par MultiCell.router.pppg$o[0].channel disabled false
par MultiCell.router.pppg$o[0].channel delay 5e-08s
attr unit s
par MultiCell.router.pppg$o[0].channel datarate 1e+10bps
attr unit bps
par MultiCell.router.pppg$o[0].channel ber 0
par MultiCell.router.pppg$o[0].channel per 0
par MultiCell.router.pppg$o[0].channel length 10m
attr unit m
par MultiCell.eNB1.x2$o[0].channel typename "\"inet.node.ethernet.Eth10G\""
par MultiCell.eNB1.x2$o[0].channel disabled false
par MultiCell.eNB1.x2$o[0].channel delay 5e-08s
attr unit s
par MultiCell.eNB1.x2$o[0].channel datarate 1e+10bps
attr unit bps
par MultiCell.eNB1.x2$o[0].channel ber 0
par MultiCell.eNB1.x2$o[0].channel per 0
par MultiCell.eNB1.x2$o[0].channel length 10m
attr unit m
par MultiCell.eNB2.x2$o[0].channel typename "\"inet.node.ethernet.Eth10G\""
par MultiCell.eNB2.x2$o[0].channel disabled false
par MultiCell.eNB2.x2$o[0].channel delay 5e-08s
attr unit s
par MultiCell.eNB2.x2$o[0].channel datarate 1e+10bps
attr unit bps
par MultiCell.eNB2.x2$o[0].channel ber 0
par MultiCell.eNB2.x2$o[0].channel per 0
par MultiCell.eNB2.x2$o[0].channel length 10m
attr unit m
par MultiCell.pgw.pppg$o[0].channel typename "\"inet.node.ethernet.Eth10G\""
par MultiCell.pgw.pppg$o[0].channel disabled false
par MultiCell.pgw.pppg$o[0].channel delay 5e-08s
attr unit s
par MultiCell.pgw.pppg$o[0].channel datarate 1e+10bps
attr unit bps
par MultiCell.pgw.pppg$o[0].channel ber 0
par MultiCell.pgw.pppg$o[0].channel per 0
par MultiCell.pgw.pppg$o[0].channel length 10m
attr unit m
par MultiCell.eNB2.ppp$o.channel typename "\"inet.node.ethernet.Eth10G\""
par MultiCell.eNB2.ppp$o.channel disabled false
par MultiCell.eNB2.ppp$o.channel delay 5e-08s
attr unit s
par MultiCell.eNB2.ppp$o.channel datarate 1e+10bps
attr unit bps
par MultiCell.eNB2.ppp$o.channel ber 0
par MultiCell.eNB2.ppp$o.channel per 0
par MultiCell.eNB2.ppp$o.channel length 10m
attr unit m
par MultiCell.pgw.pppg$o[1].channel typename "\"inet.node.ethernet.Eth10G\""
par MultiCell.pgw.pppg$o[1].channel disabled false
par MultiCell.pgw.pppg$o[1].channel delay 5e-08s
attr unit s
par MultiCell.pgw.pppg$o[1].channel datarate 1e+10bps
attr unit bps
par MultiCell.pgw.pppg$o[1].channel ber 0
par MultiCell.pgw.pppg$o[1].channel per 0
par MultiCell.pgw.pppg$o[1].channel length 10m
attr unit m
par MultiCell.eNB1.ppp$o.channel typename "\"inet.node.ethernet.Eth10G\""
par MultiCell.eNB1.ppp$o.channel disabled false
par MultiCell.eNB1.ppp$o.channel delay 5e-08s
attr unit s
par MultiCell.eNB1.ppp$o.channel datarate 1e+10bps
attr unit bps
par MultiCell.eNB1.ppp$o.channel ber 0
par MultiCell.eNB1.ppp$o.channel per 0
par MultiCell.eNB1.ppp$o.channel length 10m
attr unit m
par MultiCell.router.pppg$o[1].channel typename "\"inet.node.ethernet.Eth10G\""
par MultiCell.router.pppg$o[1].channel disabled false
par MultiCell.router.pppg$o[1].channel delay 5e-08s
attr unit s
par MultiCell.router.pppg$o[1].channel datarate 1e+10bps
attr unit bps
par MultiCell.router.pppg$o[1].channel ber 0
par MultiCell.router.pppg$o[1].channel per 0
par MultiCell.router.pppg$o[1].channel length 10m
attr unit m
par MultiCell.pgw.filterGate$o.channel typename "\"inet.node.ethernet.Eth10G\""
par MultiCell.pgw.filterGate$o.channel disabled false
par MultiCell.pgw.filterGate$o.channel delay 5e-08s
attr unit s
par MultiCell.pgw.filterGate$o.channel datarate 1e+10bps
attr unit bps
par MultiCell.pgw.filterGate$o.channel ber 0
par MultiCell.pgw.filterGate$o.channel per 0
par MultiCell.pgw.filterGate$o.channel length 10m
attr unit m
par MultiCell.channelControl typename "\"simu5g.world.radio.LteChannelControl\""
par MultiCell.channelControl coreDebug false
par MultiCell.channelControl pMax 20mW
attr unit mW
par MultiCell.channelControl sat -110dBm
attr unit dBm
par MultiCell.channelControl alpha 2
par MultiCell.channelControl carrierFrequency 2.4e+09Hz
attr unit Hz
par MultiCell.channelControl numChannels 1
par MultiCell.channelControl propagationModel "\"FreeSpaceModel\""
attr enum FreeSpaceModel,TwoRayGroundModel,RiceModel,RayleighModel,NakagamiModel,LogNormalShadowingModel
par MultiCell.routingRecorder typename "\"inet.networklayer.ipv4.RoutingTableRecorder\""
par MultiCell.routingRecorder enabled false
par MultiCell.configurator typename "\"inet.networklayer.configurator.ipv4.Ipv4NetworkConfigurator\""
par MultiCell.configurator minLinkWeight 0.001
par MultiCell.configurator configureIsolatedNetworksSeparatly false
par MultiCell.configurator config "<config>...</config> at /home/simu5g/simu5g-workspace/MieSimulazioni/simulations/MultiCell/demo.xml:1"
par MultiCell.configurator assignAddresses true
par MultiCell.configurator assignUniqueAddresses true
par MultiCell.configurator assignDisjunctSubnetAddresses true
par MultiCell.configurator addStaticRoutes true
par MultiCell.configurator addDefaultRoutes true
par MultiCell.configurator addSubnetRoutes true
par MultiCell.configurator addDirectRoutes true
par MultiCell.configurator optimizeRoutes true
par MultiCell.configurator dumpTopology false
par MultiCell.configurator dumpLinks false
par MultiCell.configurator dumpAddresses false
par MultiCell.configurator dumpRoutes false
par MultiCell.configurator dumpConfig "\"\""
par MultiCell.binder typename "\"simu5g.common.binder.Binder\""
par MultiCell.binder blerShift 0
par MultiCell.binder maxDataRatePerRb 1.16Mbps
attr unit Mbps
par MultiCell.binder printTrafficGeneratorConfig false
par MultiCell.carrierAggregation.componentCarrier[0] typename "\"simu5g.common.carrierAggregation.ComponentCarrier\""
par MultiCell.carrierAggregation.componentCarrier[0] carrierFrequency 2GHz
attr unit GHz
par MultiCell.carrierAggregation.componentCarrier[0] numBands 6
par MultiCell.carrierAggregation.componentCarrier[0] numerologyIndex 0
par MultiCell.carrierAggregation.componentCarrier[0] useTdd false
par MultiCell.carrierAggregation.componentCarrier[0] tddNumSymbolsDl 7
par MultiCell.carrierAggregation.componentCarrier[0] tddNumSymbolsUl 7
par MultiCell.carrierAggregation typename "\"simu5g.common.carrierAggregation.CarrierAggregation\""
par MultiCell.carrierAggregation numComponentCarriers 1
par MultiCell.server.pppg$i[0].channel typename "\"ned.IdealChannel\""
par MultiCell.server.ppp[0].phys$o.channel typename "\"ned.IdealChannel\""
par MultiCell.server.interfaceTable typename "\"inet.networklayer.common.InterfaceTable\""
par MultiCell.server.interfaceTable displayAddresses false
par MultiCell.server.li typename "\"inet.common.MessageDispatcher\""
par MultiCell.server.li displayStringTextFormat "\"processed %p pk (%l)\""
par MultiCell.server.lo[0].upperLayerIn.channel typename "\"ned.IdealChannel\""
par MultiCell.server.lo[0].lo.upperLayerOut.channel typename "\"ned.IdealChannel\""
par MultiCell.server.lo[0].lo typename "\"inet.linklayer.loopback.Loopback\""
par MultiCell.server.lo[0].lo interfaceTableModule "\"MultiCell.server.interfaceTable\""
par MultiCell.server.lo[0].lo mtu 4470B
attr unit B
scalar MultiCell.server.lo[0].lo rcvdPkFromHl:count 0
attr interpolationmode none
attr source packetReceivedFromUpper
attr title "packets received from higher layer, count"
scalar MultiCell.server.lo[0].lo rcvdPkFromHl:sum(packetBytes) 0
attr interpolationmode none
attr source packetReceivedFromUpper
attr title "packets received from higher layer, sum(packetBytes)"
scalar MultiCell.server.lo[0].lo passedUpPk:count 0
attr interpolationmode none
attr source packetSentToUpper
attr title "packets passed to higher layer, count"
scalar MultiCell.server.lo[0].lo passedUpPk:sum(packetBytes) 0
attr interpolationmode none
attr source packetSentToUpper
attr title "packets passed to higher layer, sum(packetBytes)"
par MultiCell.server.lo[0] typename "\"inet.linklayer.loopback.LoopbackInterface\""
par MultiCell.server.lo[0] displayStringTextFormat "\"%a (%i)\\n%m\""
par MultiCell.server.lo[0] recordPcap false
par MultiCell.server.lo[0] numPcapRecorders 0
par MultiCell.server.lo[0] interfaceTableModule "\"MultiCell.server.interfaceTable\""
par MultiCell.server.ppp[0].upperLayerIn.channel typename "\"ned.IdealChannel\""
par MultiCell.server.ppp[0].phys$i.channel typename "\"ned.IdealChannel\""
par MultiCell.server.ppp[0].ppp.phys$o.channel typename "\"ned.IdealChannel\""
par MultiCell.server.ppp[0].ppp.upperLayerOut.channel typename "\"ned.IdealChannel\""
par MultiCell.server.ppp[0].ppp.queue typename "\"inet.queueing.queue.DropTailQueue\""
par MultiCell.server.ppp[0].ppp.queue displayStringTextFormat "\"contains %p pk (%l) pushed %u\\npulled %o removed %r dropped %d\""
par MultiCell.server.ppp[0].ppp.queue packetCapacity 10000
par MultiCell.server.ppp[0].ppp.queue dataCapacity -1b
attr unit b
par MultiCell.server.ppp[0].ppp.queue dropperClass "\"inet::queueing::PacketAtCollectionEndDropper\""
par MultiCell.server.ppp[0].ppp.queue comparatorClass "\"\""
par MultiCell.server.ppp[0].ppp.queue bufferModule "\"\""
scalar MultiCell.server.ppp[0].ppp.queue packetPulled:count 1413
attr interpolationmode none
attr title "packet pulled, count"
scalar MultiCell.server.ppp[0].ppp.queue packetPulled:sum(packetBytes) 96084
attr interpolationmode none
attr title "packet pulled, sum(packetBytes)"
statistic MultiCell.server.ppp[0].ppp.queue queueingTime:histogram
field count 1413
field mean 0
field stddev 0
field min 0
field max 0
field sum 0
field sqrsum 0
attr interpolationmode none
attr source queueingTime(packetPulled)
attr title "queueing times, histogram"
attr unit s
bin	-inf	0
bin	-0.5	0
bin	-0.48	0
bin	-0.46	0
bin	-0.44	0
bin	-0.42	0
bin	-0.4	0
bin	-0.38	0
bin	-0.36	0
bin	-0.34	0
bin	-0.32	0
bin	-0.3	0
bin	-0.28	0
bin	-0.26	0
bin	-0.24	0
bin	-0.22	0
bin	-0.2	0
bin	-0.18	0
bin	-0.16	0
bin	-0.14	0
bin	-0.12	0
bin	-0.1	0
bin	-0.08	0
bin	-0.06	0
bin	-0.04	0
bin	-0.02	0
bin	0	1413
bin	0.02	0
bin	0.04	0
bin	0.06	0
bin	0.08	0
bin	0.1	0
bin	0.12	0
bin	0.14	0
bin	0.16	0
bin	0.18	0
bin	0.2	0
bin	0.22	0
bin	0.24	0
bin	0.26	0
bin	0.28	0
bin	0.3	0
bin	0.32	0
bin	0.34	0
bin	0.36	0
bin	0.38	0
bin	0.4	0
bin	0.42	0
bin	0.44	0
bin	0.46	0
bin	0.48	0
bin	0.5	0
scalar MultiCell.server.ppp[0].ppp.queue queueLength:max 1
attr autoWarmupFilter false
attr interpolationmode sample-hold
attr source "warmup(count(packetPushed) - count(packetPulled) - count(packetRemoved) - count(packetDropped))"
attr title "queue length, max"
attr type int
scalar MultiCell.server.ppp[0].ppp.queue queueLength:timeavg 0
attr autoWarmupFilter false
attr interpolationmode sample-hold
attr source "warmup(count(packetPushed) - count(packetPulled) - count(packetRemoved) - count(packetDropped))"
attr title "queue length, timeavg"
attr type int
scalar MultiCell.server.ppp[0].ppp.queue packetPushed:count 1413
attr interpolationmode none
attr title "packet pushed, count"
scalar MultiCell.server.ppp[0].ppp.queue packetPushed:sum(packetBytes) 96084
attr interpolationmode none
attr title "packet pushed, sum(packetBytes)"
scalar MultiCell.server.ppp[0].ppp.queue packetDropQueueOverflow:count 0
attr interpolationmode none
attr source packetDropReasonIsQueueOverflow(packetDropped)
attr title "packet drops: queue overflow, count"
scalar MultiCell.server.ppp[0].ppp.queue packetDropQueueOverflow:sum(packetBytes) 0
attr interpolationmode none
attr source packetDropReasonIsQueueOverflow(packetDropped)
attr title "packet drops: queue overflow, sum(packetBytes)"
scalar MultiCell.server.ppp[0].ppp.queue packetRemoved:count 0
attr interpolationmode none
attr title "packets removed, count"
scalar MultiCell.server.ppp[0].ppp.queue packetRemoved:sum(packetBytes) 0
attr interpolationmode none
attr title "packets removed, sum(packetBytes)"
par MultiCell.server.ppp[0].ppp typename "\"inet.linklayer.ppp.Ppp\""
par MultiCell.server.ppp[0].ppp interfaceTableModule "\"MultiCell.server.interfaceTable\""
par MultiCell.server.ppp[0].ppp displayStringTextFormat "\"rate: %b\\nsent: %s, rcvd: %r\\nqueue: %q, drop: %d\""
par MultiCell.server.ppp[0].ppp sendRawBytes false
par MultiCell.server.ppp[0].ppp mtu 4470B
attr unit B
par MultiCell.server.ppp[0].ppp stopOperationExtraTime -1s
attr unit s
par MultiCell.server.ppp[0].ppp stopOperationTimeout 2s
attr unit s
scalar MultiCell.server.ppp[0].ppp transmissionState:timeavg 8.478e-06
attr interpolationmode sample-hold
attr source transmissionStateChanged
attr title "tx state, timeavg"
scalar MultiCell.server.ppp[0].ppp rxPkOk:count 0
attr interpolationmode none
attr source rxPkOk
attr title "packets received OK, count"
scalar MultiCell.server.ppp[0].ppp rxPkOk:sum(packetBytes) 0
attr interpolationmode none
attr source rxPkOk
attr title "packets received OK, sum(packetBytes)"
scalar MultiCell.server.ppp[0].ppp txPk:count 1413
attr interpolationmode none
attr source packetSentToLower
attr title "packets transmitted, count"
scalar MultiCell.server.ppp[0].ppp txPk:sum(packetBytes) 105975
attr interpolationmode none
attr source packetSentToLower
attr title "packets transmitted, sum(packetBytes)"
scalar MultiCell.server.ppp[0].ppp rcvdPkFromHl:count 1413
attr interpolationmode none
attr source packetReceivedFromUpper
attr title "packets received from higher layer, count"
scalar MultiCell.server.ppp[0].ppp rcvdPkFromHl:sum(packetBytes) 96084
attr interpolationmode none
attr source packetReceivedFromUpper
attr title "packets received from higher layer, sum(packetBytes)"
scalar MultiCell.server.ppp[0].ppp passedUpPk:count 0
attr interpolationmode none
attr source packetSentToUpper
attr title "packets passed to higher layer, count"
scalar MultiCell.server.ppp[0].ppp passedUpPk:sum(packetBytes) 0
attr interpolationmode none
attr source packetSentToUpper
attr title "packets passed to higher layer, sum(packetBytes)"
scalar MultiCell.server.ppp[0].ppp packetDropIncorrectlyReceived:count 0
attr interpolationmode none
attr source packetDropReasonIsIncorrectlyReceived(packetDropped)
attr title "packet drop: incorrectly received, count"
scalar MultiCell.server.ppp[0].ppp packetDropIncorrectlyReceived:sum(packetBytes) 0
attr interpolationmode none
attr source packetDropReasonIsIncorrectlyReceived(packetDropped)
attr title "packet drop: incorrectly received, sum(packetBytes)"
scalar MultiCell.server.ppp[0].ppp packetDropInterfaceDown:count 0
attr interpolationmode none
attr source packetDropReasonIsInterfaceDown(packetDropped)
attr title "packet drop: interface down, count"
scalar MultiCell.server.ppp[0].ppp packetDropInterfaceDown:sum(packetBytes) 0
attr interpolationmode none
attr source packetDropReasonIsInterfaceDown(packetDropped)
attr title "packet drop: interface down, sum(packetBytes)"
par MultiCell.server.ppp[0] typename "\"inet.linklayer.ppp.PppInterface\""
par MultiCell.server.ppp[0] displayStringTextFormat "\"%a (%i)\\n%m\""
par MultiCell.server.ppp[0] recordPcap false
par MultiCell.server.ppp[0] numPcapRecorders 0
par MultiCell.server.ppp[0] interfaceTableModule "\"MultiCell.server.interfaceTable\""
par MultiCell.server.ipv4.transportIn.channel typename "\"ned.IdealChannel\""
par MultiCell.server.ipv4.up.out[0].channel typename "\"ned.IdealChannel\""
par MultiCell.server.ipv4.lp.out[2].channel typename "\"ned.IdealChannel\""
par MultiCell.server.ipv4.ifIn.channel typename "\"ned.IdealChannel\""
par MultiCell.server.ipv4.configurator typename "\"inet.networklayer.configurator.ipv4.Ipv4NodeConfigurator\""
par MultiCell.server.ipv4.configurator interfaceTableModule "\"MultiCell.server.interfaceTable\""
par MultiCell.server.ipv4.configurator routingTableModule "\"MultiCell.server.ipv4.routingTable\""
par MultiCell.server.ipv4.configurator networkConfiguratorModule "\"configurator\""
par MultiCell.server.ipv4.configurator configureRoutingTable true
par MultiCell.server.ipv4.routingTable typename "\"inet.networklayer.ipv4.Ipv4RoutingTable\""
par MultiCell.server.ipv4.routingTable interfaceTableModule "\"MultiCell.server.interfaceTable\""
par MultiCell.server.ipv4.routingTable routerId "\"auto\""
par MultiCell.server.ipv4.routingTable netmaskRoutes "\"*\""
par MultiCell.server.ipv4.routingTable forwarding false
par MultiCell.server.ipv4.routingTable multicastForwarding false
par MultiCell.server.ipv4.routingTable useAdminDist false
par MultiCell.server.ipv4.routingTable routingFile "\"\""
par MultiCell.server.ipv4.natTable typename "\"inet.networklayer.ipv4.Ipv4NatTable\""
par MultiCell.server.ipv4.natTable networkProtocolModule "\"^.ip\""
par MultiCell.server.ipv4.natTable config "<config/> at content:1"
par MultiCell.server.ipv4.up typename "\"inet.common.MessageDispatcher\""
par MultiCell.server.ipv4.up displayStringTextFormat "\"processed %p pk (%l)\""
par MultiCell.server.ipv4.igmp typename "\"inet.networklayer.ipv4.Igmpv2\""
par MultiCell.server.ipv4.igmp interfaceTableModule "\"MultiCell.server.interfaceTable\""
par MultiCell.server.ipv4.igmp routingTableModule "\"MultiCell.server.ipv4.routingTable\""
par MultiCell.server.ipv4.igmp crcMode "\"declared\""
attr enum declared,computed
par MultiCell.server.ipv4.igmp enabled true
par MultiCell.server.ipv4.igmp robustnessVariable 2
par MultiCell.server.ipv4.igmp queryInterval 125s
attr unit s
par MultiCell.server.ipv4.igmp queryResponseInterval 10s
attr unit s
par MultiCell.server.ipv4.igmp groupMembershipInterval 260s
attr unit s
par MultiCell.server.ipv4.igmp otherQuerierPresentInterval 255s
attr unit s
par MultiCell.server.ipv4.igmp startupQueryInterval 31.25s
attr unit s
par MultiCell.server.ipv4.igmp startupQueryCount 2
par MultiCell.server.ipv4.igmp lastMemberQueryInterval 1s
attr unit s
par MultiCell.server.ipv4.igmp lastMemberQueryCount 2
par MultiCell.server.ipv4.igmp unsolicitedReportInterval 10s
attr unit s
par MultiCell.server.ipv4.icmp typename "\"inet.networklayer.ipv4.Icmp\""
par MultiCell.server.ipv4.icmp interfaceTableModule "\"MultiCell.server.interfaceTable\""
par MultiCell.server.ipv4.icmp routingTableModule "\"MultiCell.server.ipv4.routingTable\""
par MultiCell.server.ipv4.icmp crcMode "\"declared\""
attr enum declared,computed
par MultiCell.server.ipv4.icmp quoteLength 8B
attr unit B
par MultiCell.server.ipv4.mp typename "\"inet.common.MessageDispatcher\""
par MultiCell.server.ipv4.mp displayStringTextFormat "\"processed %p pk (%l)\""
par MultiCell.server.ipv4.ip typename "\"inet.networklayer.ipv4.Ipv4\""
par MultiCell.server.ipv4.ip interfaceTableModule "\"MultiCell.server.interfaceTable\""
par MultiCell.server.ipv4.ip routingTableModule "\"MultiCell.server.ipv4.routingTable\""
par MultiCell.server.ipv4.ip arpModule "\"MultiCell.server.ipv4.arp\""
par MultiCell.server.ipv4.ip icmpModule "\"MultiCell.server.ipv4.icmp\""
par MultiCell.server.ipv4.ip crcMode "\"declared\""
attr enum declared,computed
par MultiCell.server.ipv4.ip timeToLive 32
par MultiCell.server.ipv4.ip multicastTimeToLive 32
par MultiCell.server.ipv4.ip fragmentTimeout 60s
attr unit s
par MultiCell.server.ipv4.ip limitedBroadcast false
par MultiCell.server.ipv4.ip directBroadcastInterfaces "\"\""
scalar MultiCell.server.ipv4.ip packetDropAddressResolutionFailed:count 0
attr interpolationmode none
attr source packetDropReasonIsAddressResolutionFailed(packetDropped)
attr title "packet drop: address resolution failed, count"
scalar MultiCell.server.ipv4.ip packetDropAddressResolutionFailed:sum(packetBytes) 0
attr interpolationmode none
attr source packetDropReasonIsAddressResolutionFailed(packetDropped)
attr title "packet drop: address resolution failed, sum(packetBytes)"
scalar MultiCell.server.ipv4.ip packetDropHopLimitReached:count 0
attr interpolationmode none
attr source packetDropReasonIsHopLimitReached(packetDropped)
attr title "packet drop: hop limit reached, count"
scalar MultiCell.server.ipv4.ip packetDropHopLimitReached:sum(packetBytes) 0
attr interpolationmode none
attr source packetDropReasonIsHopLimitReached(packetDropped)
attr title "packet drop: hop limit reached, sum(packetBytes)"
scalar MultiCell.server.ipv4.ip packetDropForwardingDisabled:count 0
attr interpolationmode none
attr source packetDropReasonIsForwardingDisabled(packetDropped)
attr title "packet drop: forwarding disabled, count"
scalar MultiCell.server.ipv4.ip packetDropForwardingDisabled:sum(packetBytes) 0
attr interpolationmode none
attr source packetDropReasonIsForwardingDisabled(packetDropped)
attr title "packet drop: forwarding disabled, sum(packetBytes)"
scalar MultiCell.server.ipv4.ip packetDropNoInterfaceFound:count 0
attr interpolationmode none
attr source packetDropReasonIsNoInterfaceFound(packetDropped)
attr title "packet drop: no interface found, count"
scalar MultiCell.server.ipv4.ip packetDropNoInterfaceFound:sum(packetBytes) 0
attr interpolationmode none
attr source packetDropReasonIsNoInterfaceFound(packetDropped)
attr title "packet drop: no interface found, sum(packetBytes)"
scalar MultiCell.server.ipv4.ip packetDropNoRouteFound:count 0
attr interpolationmode none
attr source packetDropReasonIsNoRouteFound(packetDropped)
attr title "packet drop: no route found, count"
scalar MultiCell.server.ipv4.ip packetDropNoRouteFound:sum(packetBytes) 0
attr interpolationmode none
attr source packetDropReasonIsNoRouteFound(packetDropped)
attr title "packet drop: no route found, sum(packetBytes)"
scalar MultiCell.server.ipv4.ip packetDropUndefined:count 0
attr interpolationmode none
attr source packetDropReasonIsUndefined(packetDropped)
attr title "packet drop: undefined, count"
scalar MultiCell.server.ipv4.ip packetDropUndefined:sum(packetBytes) 0
attr interpolationmode none
attr source packetDropReasonIsUndefined(packetDropped)
attr title "packet drop: undefined, sum(packetBytes)"
par MultiCell.server.ipv4.arp typename "\"inet.networklayer.arp.ipv4.Arp\""
par MultiCell.server.ipv4.arp interfaceTableModule "\"MultiCell.server.interfaceTable\""
par MultiCell.server.ipv4.arp routingTableModule "\"MultiCell.server.ipv4.routingTable\""
par MultiCell.server.ipv4.arp retryTimeout 1s
attr unit s
par MultiCell.server.ipv4.arp retryCount 3
par MultiCell.server.ipv4.arp cacheTimeout 120s
attr unit s
par MultiCell.server.ipv4.arp proxyArpInterfaces "\"\""
scalar MultiCell.server.ipv4.arp arpResolutionFailed:count 0
attr title "ARP failed resolutions, count"
scalar MultiCell.server.ipv4.arp arpResolutionCompleted:count 0
attr title "ARP completed resolutions, count"
scalar MultiCell.server.ipv4.arp arpResolutionInitiated:count 0
attr title "ARP initiated resolutions, count"
scalar MultiCell.server.ipv4.arp arpReplySent:count 0
attr source arpReplySent
attr title "ARP replies sent, count"
scalar MultiCell.server.ipv4.arp arpReplySent:sum(packetBytes) 0
attr source arpReplySent
attr title "ARP replies sent, sum(packetBytes)"
scalar MultiCell.server.ipv4.arp arpRequestSent:count 0
attr source arpRequestSent
attr title "ARP request sent, count"
scalar MultiCell.server.ipv4.arp arpRequestSent:sum(packetBytes) 0
attr source arpRequestSent
attr title "ARP request sent, sum(packetBytes)"
par MultiCell.server.ipv4.lp typename "\"inet.common.MessageDispatcher\""
par MultiCell.server.ipv4.lp displayStringTextFormat "\"processed %p pk (%l)\""
par MultiCell.server.ipv4 typename "\"inet.networklayer.ipv4.Ipv4NetworkLayer\""
par MultiCell.server.ipv4 forwarding false
par MultiCell.server.ipv4 multicastForwarding false
par MultiCell.server.ipv4 interfaceTableModule "\"MultiCell.server.interfaceTable\""
par MultiCell.server.ipv4 displayStringTextFormat "\"%i\""
par MultiCell.server.nl typename "\"inet.common.MessageDispatcher\""
par MultiCell.server.nl displayStringTextFormat "\"processed %p pk (%l)\""
par MultiCell.server.udp typename "\"inet.transportlayer.udp.Udp\""
par MultiCell.server.udp interfaceTableModule "\"MultiCell.server.interfaceTable\""
par MultiCell.server.udp icmpModule "\"^.ipv4.icmp\""
par MultiCell.server.udp icmpv6Module "\"^.ipv6.icmpv6\""
par MultiCell.server.udp crcMode "\"declared\""
attr enum disabled,declared,computed
scalar MultiCell.server.udp packetReceived:count 0
attr interpolationmode none
attr source packetReceived
attr title "packets received, count"
scalar MultiCell.server.udp packetReceived:sum(packetBytes) 0
attr interpolationmode none
attr source packetReceived
attr title "packets received, sum(packetBytes)"
scalar MultiCell.server.udp packetSent:count 1413
attr interpolationmode none
attr source packetSent
attr title "packets sent, count"
scalar MultiCell.server.udp packetSent:sum(packetBytes) 67824
attr interpolationmode none
attr source packetSent
attr title "packets sent, sum(packetBytes)"
scalar MultiCell.server.udp passedUpPk:count 0
attr interpolationmode none
attr source packetSentToUpper
attr title "packets passed up, count"
scalar MultiCell.server.udp droppedPkWrongPort:count 0
attr interpolationmode none
attr source packetDropReasonIsNoPortFound(packetDropped)
attr title "packets dropped (wrong port), count"
scalar MultiCell.server.udp droppedPkBadChecksum:count 0
attr interpolationmode none
attr source packetDropReasonIsIncorrectlyReceived(packetDropped)
attr title "packets dropped (checksum error), count"
par MultiCell.server.tcp typename "\"inet.transportlayer.tcp.Tcp\""
par MultiCell.server.tcp crcMode "\"declared\""
attr enum declared,computed
par MultiCell.server.tcp advertisedWindow 7504
par MultiCell.server.tcp delayedAcksEnabled false
par MultiCell.server.tcp nagleEnabled true
par MultiCell.server.tcp limitedTransmitEnabled false
par MultiCell.server.tcp increasedIWEnabled false
par MultiCell.server.tcp sackSupport false
par MultiCell.server.tcp windowScalingSupport false
par MultiCell.server.tcp windowScalingFactor -1
par MultiCell.server.tcp timestampSupport false
par MultiCell.server.tcp mss 536
par MultiCell.server.tcp msl 120s
attr unit s
par MultiCell.server.tcp tcpAlgorithmClass "\"TcpReno\""
attr enum TcpVegas,TcpWestwood,TcpNewReno,TcpReno,TcpTahoe,TcpNoCongestionControl
par MultiCell.server.tcp useDataNotification false
par MultiCell.server.tcp dupthresh 3
par MultiCell.server.tcp initialSsthresh 4294967295
par MultiCell.server.tcp stopOperationExtraTime 0s
attr unit s
par MultiCell.server.tcp stopOperationTimeout 2s
attr unit s
par MultiCell.server.tcp ecnWillingness false
par MultiCell.server.tcp dctcpGamma 0.0625
par MultiCell.server.tn typename "\"inet.common.MessageDispatcher\""
par MultiCell.server.tn displayStringTextFormat "\"processed %p pk (%l)\""
par MultiCell.server.app[0] typename "\"simu5g.apps.voip.VoIPSender\""
par MultiCell.server.app[0] localPort 3088
par MultiCell.server.app[0] destPort 3000
par MultiCell.server.app[0] destAddress "\"ue11\""
par MultiCell.server.app[0] PacketSize 40
par MultiCell.server.app[0] shape_talk 0.824
par MultiCell.server.app[0] scale_talk 1.423
par MultiCell.server.app[0] shape_sil 1.089
par MultiCell.server.app[0] scale_sil 0.899
par MultiCell.server.app[0] is_talk true
par MultiCell.server.app[0] sampling_time 0.02s
attr unit s
par MultiCell.server.app[0] startTime 0.0162304s
attr unit s
par MultiCell.server.app[0] silences true
par MultiCell.server.app[0] tos -1
scalar MultiCell.server.app[0] voIPGeneratedThroughput:mean 1786.7504280056
attr source voIPGeneratedThroughput
attr title "Throughput generated by the application, mean"
attr unit Bps
par MultiCell.server.app[1] typename "\"simu5g.apps.voip.VoIPSender\""
par MultiCell.server.app[1] localPort 3089
par MultiCell.server.app[1] destPort 3000
par MultiCell.server.app[1] destAddress "\"ue12\""
par MultiCell.server.app[1] PacketSize 40
par MultiCell.server.app[1] shape_talk 0.824
par MultiCell.server.app[1] scale_talk 1.423
par MultiCell.server.app[1] shape_sil 1.089
par MultiCell.server.app[1] scale_sil 0.899
par MultiCell.server.app[1] is_talk true
par MultiCell.server.app[1] sampling_time 0.02s
attr unit s
par MultiCell.server.app[1] startTime 0.00713808s
attr unit s
par MultiCell.server.app[1] silences true
par MultiCell.server.app[1] tos -1
scalar MultiCell.server.app[1] voIPGeneratedThroughput:mean 1720.0028561321
attr source voIPGeneratedThroughput
attr title "Throughput generated by the application, mean"
attr unit Bps
par MultiCell.server.app[2] typename "\"simu5g.apps.voip.VoIPSender\""
par MultiCell.server.app[2] localPort 3090
par MultiCell.server.app[2] destPort 3000
par MultiCell.server.app[2] destAddress "\"ue21\""
par MultiCell.server.app[2] PacketSize 40
par MultiCell.server.app[2] shape_talk 0.824
par MultiCell.server.app[2] scale_talk 1.423
par MultiCell.server.app[2] shape_sil 1.089
par MultiCell.server.app[2] scale_sil 0.899
par MultiCell.server.app[2] is_talk true
par MultiCell.server.app[2] sampling_time 0.02s
attr unit s
par MultiCell.server.app[2] startTime 0.00952168s
attr unit s
par MultiCell.server.app[2] silences true
par MultiCell.server.app[2] tos -1
scalar MultiCell.server.app[2] voIPGeneratedThroughput:mean 1016.5471547454
attr source voIPGeneratedThroughput
attr title "Throughput generated by the application, mean"
attr unit Bps
par MultiCell.server.app[3] typename "\"simu5g.apps.voip.VoIPSender\""
par MultiCell.server.app[3] localPort 3091
par MultiCell.server.app[3] destPort 3000
par MultiCell.server.app[3] destAddress "\"ue22\""
par MultiCell.server.app[3] PacketSize 40
par MultiCell.server.app[3] shape_talk 0.824
par MultiCell.server.app[3] scale_talk 1.423
par MultiCell.server.app[3] shape_sil 1.089
par MultiCell.server.app[3] scale_sil 0.899
par MultiCell.server.app[3] is_talk true
par MultiCell.server.app[3] sampling_time 0.02s
attr unit s
par MultiCell.server.app[3] startTime 0.0186768s
attr unit s
par MultiCell.server.app[3] silences true
par MultiCell.server.app[3] tos -1
scalar MultiCell.server.app[3] voIPGeneratedThroughput:mean 1822.5318983786
attr source voIPGeneratedThroughput
attr title "Throughput generated by the application, mean"
attr unit Bps
par MultiCell.server.at typename "\"inet.common.MessageDispatcher\""
par MultiCell.server.at displayStringTextFormat "\"processed %p pk (%l)\""
par MultiCell.server typename "\"inet.node.inet.StandardHost\""
par MultiCell.server hasStatus false
par MultiCell.server osgModel "\"\""
par MultiCell.server osgModelColor "\"\""
par MultiCell.server canvasImage "\"\""
par MultiCell.server canvasImageColor "\"\""
par MultiCell.server recordPcap false
par MultiCell.server numPcapRecorders 0
par MultiCell.server numLoInterfaces 1
par MultiCell.server numWlanInterfaces 0
par MultiCell.server numEthInterfaces 0
par MultiCell.server numPppInterfaces 0
par MultiCell.server numTunInterfaces 0
par MultiCell.server numVirtInterfaces 0
par MultiCell.server hasIpv4 true
par MultiCell.server hasIpv6 false
par MultiCell.server hasGn false
par MultiCell.server forwarding false
par MultiCell.server multicastForwarding false
par MultiCell.server hasUdp true
par MultiCell.server hasTcp true
par MultiCell.server hasSctp false
par MultiCell.server numApps 4
par MultiCell.router.pppg$i[0].channel typename "\"ned.IdealChannel\""
par MultiCell.router.ppp[0].phys$o.channel typename "\"ned.IdealChannel\""
par MultiCell.router.pppg$i[1].channel typename "\"ned.IdealChannel\""
par MultiCell.router.ppp[1].phys$o.channel typename "\"ned.IdealChannel\""
par MultiCell.router.interfaceTable typename "\"inet.networklayer.common.InterfaceTable\""
par MultiCell.router.interfaceTable displayAddresses false
par MultiCell.router.li typename "\"inet.common.MessageDispatcher\""
par MultiCell.router.li displayStringTextFormat "\"processed %p pk (%l)\""
par MultiCell.router.lo[0].upperLayerIn.channel typename "\"ned.IdealChannel\""
par MultiCell.router.lo[0].lo.upperLayerOut.channel typename "\"ned.IdealChannel\""
par MultiCell.router.lo[0].lo typename "\"inet.linklayer.loopback.Loopback\""
par MultiCell.router.lo[0].lo interfaceTableModule "\"MultiCell.router.interfaceTable\""
par MultiCell.router.lo[0].lo mtu 4470B
attr unit B
scalar MultiCell.router.lo[0].lo rcvdPkFromHl:count 0
attr interpolationmode none
attr source packetReceivedFromUpper
attr title "packets received from higher layer, count"
scalar MultiCell.router.lo[0].lo rcvdPkFromHl:sum(packetBytes) 0
attr interpolationmode none
attr source packetReceivedFromUpper
attr title "packets received from higher layer, sum(packetBytes)"
scalar MultiCell.router.lo[0].lo passedUpPk:count 0
attr interpolationmode none
attr source packetSentToUpper
attr title "packets passed to higher layer, count"
scalar MultiCell.router.lo[0].lo passedUpPk:sum(packetBytes) 0
attr interpolationmode none
attr source packetSentToUpper
attr title "packets passed to higher layer, sum(packetBytes)"
par MultiCell.router.lo[0] typename "\"inet.linklayer.loopback.LoopbackInterface\""
par MultiCell.router.lo[0] displayStringTextFormat "\"%a (%i)\\n%m\""
par MultiCell.router.lo[0] recordPcap false
par MultiCell.router.lo[0] numPcapRecorders 0
par MultiCell.router.lo[0] interfaceTableModule "\"MultiCell.router.interfaceTable\""
par MultiCell.router.ppp[0].upperLayerIn.channel typename "\"ned.IdealChannel\""
par MultiCell.router.ppp[0].phys$i.channel typename "\"ned.IdealChannel\""
par MultiCell.router.ppp[0].ppp.phys$o.channel typename "\"ned.IdealChannel\""
par MultiCell.router.ppp[0].ppp.upperLayerOut.channel typename "\"ned.IdealChannel\""
par MultiCell.router.ppp[0].ppp.queue typename "\"inet.queueing.queue.DropTailQueue\""
par MultiCell.router.ppp[0].ppp.queue displayStringTextFormat "\"contains %p pk (%l) pushed %u\\npulled %o removed %r dropped %d\""
par MultiCell.router.ppp[0].ppp.queue packetCapacity 10000
par MultiCell.router.ppp[0].ppp.queue dataCapacity -1b
attr unit b
par MultiCell.router.ppp[0].ppp.queue dropperClass "\"inet::queueing::PacketAtCollectionEndDropper\""
par MultiCell.router.ppp[0].ppp.queue comparatorClass "\"\""
par MultiCell.router.ppp[0].ppp.queue bufferModule "\"\""
scalar MultiCell.router.ppp[0].ppp.queue packetPulled:count 0
attr interpolationmode none
attr title "packet pulled, count"
scalar MultiCell.router.ppp[0].ppp.queue packetPulled:sum(packetBytes) 0
attr interpolationmode none
attr title "packet pulled, sum(packetBytes)"
statistic MultiCell.router.ppp[0].ppp.queue queueingTime:histogram
field count 0
field mean -nan
field stddev nan
field min nan
field max nan
field sum 0
field sqrsum 0
attr interpolationmode none
attr source queueingTime(packetPulled)
attr title "queueing times, histogram"
attr unit s
bin	-inf	0
bin	0	0
bin	1	0
scalar MultiCell.router.ppp[0].ppp.queue queueLength:max nan
attr autoWarmupFilter false
attr interpolationmode sample-hold
attr source "warmup(count(packetPushed) - count(packetPulled) - count(packetRemoved) - count(packetDropped))"
attr title "queue length, max"
attr type int
scalar MultiCell.router.ppp[0].ppp.queue queueLength:timeavg -nan
attr autoWarmupFilter false
attr interpolationmode sample-hold
attr source "warmup(count(packetPushed) - count(packetPulled) - count(packetRemoved) - count(packetDropped))"
attr title "queue length, timeavg"
attr type int
scalar MultiCell.router.ppp[0].ppp.queue packetPushed:count 0
attr interpolationmode none
attr title "packet pushed, count"
scalar MultiCell.router.ppp[0].ppp.queue packetPushed:sum(packetBytes) 0
attr interpolationmode none
attr title "packet pushed, sum(packetBytes)"
scalar MultiCell.router.ppp[0].ppp.queue packetDropQueueOverflow:count 0
attr interpolationmode none
attr source packetDropReasonIsQueueOverflow(packetDropped)
attr title "packet drops: queue overflow, count"
scalar MultiCell.router.ppp[0].ppp.queue packetDropQueueOverflow:sum(packetBytes) 0
attr interpolationmode none
attr source packetDropReasonIsQueueOverflow(packetDropped)
attr title "packet drops: queue overflow, sum(packetBytes)"
scalar MultiCell.router.ppp[0].ppp.queue packetRemoved:count 0
attr interpolationmode none
attr title "packets removed, count"
scalar MultiCell.router.ppp[0].ppp.queue packetRemoved:sum(packetBytes) 0
attr interpolationmode none
attr title "packets removed, sum(packetBytes)"
par MultiCell.router.ppp[0].ppp typename "\"inet.linklayer.ppp.Ppp\""
par MultiCell.router.ppp[0].ppp interfaceTableModule "\"MultiCell.router.interfaceTable\""
par MultiCell.router.ppp[0].ppp displayStringTextFormat "\"rate: %b\\nsent: %s, rcvd: %r\\nqueue: %q, drop: %d\""
par MultiCell.router.ppp[0].ppp sendRawBytes false
par MultiCell.router.ppp[0].ppp mtu 4470B
attr unit B
par MultiCell.router.ppp[0].ppp stopOperationExtraTime -1s
attr unit s
par MultiCell.router.ppp[0].ppp stopOperationTimeout 2s
attr unit s
scalar MultiCell.router.ppp[0].ppp transmissionState:timeavg 0
attr interpolationmode sample-hold
attr source transmissionStateChanged
attr title "tx state, timeavg"
scalar MultiCell.router.ppp[0].ppp rxPkOk:count 1413
attr interpolationmode none
attr source rxPkOk
attr title "packets received OK, count"
scalar MultiCell.router.ppp[0].ppp rxPkOk:sum(packetBytes) 105975
attr interpolationmode none
attr source rxPkOk
attr title "packets received OK, sum(packetBytes)"
scalar MultiCell.router.ppp[0].ppp txPk:count 0
attr interpolationmode none
attr source packetSentToLower
attr title "packets transmitted, count"
scalar MultiCell.router.ppp[0].ppp txPk:sum(packetBytes) 0
attr interpolationmode none
attr source packetSentToLower
attr title "packets transmitted, sum(packetBytes)"
scalar MultiCell.router.ppp[0].ppp rcvdPkFromHl:count 0
attr interpolationmode none
attr source packetReceivedFromUpper
attr title "packets received from higher layer, count"
scalar MultiCell.router.ppp[0].ppp rcvdPkFromHl:sum(packetBytes) 0
attr interpolationmode none
attr source packetReceivedFromUpper
attr title "packets received from higher layer, sum(packetBytes)"
scalar MultiCell.router.ppp[0].ppp passedUpPk:count 1413
attr interpolationmode none
attr source packetSentToUpper
attr title "packets passed to higher layer, count"
scalar MultiCell.router.ppp[0].ppp passedUpPk:sum(packetBytes) 96084
attr interpolationmode none
attr source packetSentToUpper
attr title "packets passed to higher layer, sum(packetBytes)"
scalar MultiCell.router.ppp[0].ppp packetDropIncorrectlyReceived:count 0
attr interpolationmode none
attr source packetDropReasonIsIncorrectlyReceived(packetDropped)
attr title "packet drop: incorrectly received, count"
scalar MultiCell.router.ppp[0].ppp packetDropIncorrectlyReceived:sum(packetBytes) 0
attr interpolationmode none
attr source packetDropReasonIsIncorrectlyReceived(packetDropped)
attr title "packet drop: incorrectly received, sum(packetBytes)"
scalar MultiCell.router.ppp[0].ppp packetDropInterfaceDown:count 0
attr interpolationmode none
attr source packetDropReasonIsInterfaceDown(packetDropped)
attr title "packet drop: interface down, count"
scalar MultiCell.router.ppp[0].ppp packetDropInterfaceDown:sum(packetBytes) 0
attr interpolationmode none
attr source packetDropReasonIsInterfaceDown(packetDropped)
attr title "packet drop: interface down, sum(packetBytes)"
par MultiCell.router.ppp[0] typename "\"inet.linklayer.ppp.PppInterface\""
par MultiCell.router.ppp[0] displayStringTextFormat "\"%a (%i)\\n%m\""
par MultiCell.router.ppp[0] recordPcap false
par MultiCell.router.ppp[0] numPcapRecorders 0
par MultiCell.router.ppp[0] interfaceTableModule "\"MultiCell.router.interfaceTable\""
par MultiCell.router.ppp[1].upperLayerIn.channel typename "\"ned.IdealChannel\""
par MultiCell.router.ppp[1].phys$i.channel typename "\"ned.IdealChannel\""
par MultiCell.router.ppp[1].ppp.phys$o.channel typename "\"ned.IdealChannel\""
par MultiCell.router.ppp[1].ppp.upperLayerOut.channel typename "\"ned.IdealChannel\""
par MultiCell.router.ppp[1].ppp.queue typename "\"inet.queueing.queue.DropTailQueue\""
par MultiCell.router.ppp[1].ppp.queue displayStringTextFormat "\"contains %p pk (%l) pushed %u\\npulled %o removed %r dropped %d\""
par MultiCell.router.ppp[1].ppp.queue packetCapacity 10000
par MultiCell.router.ppp[1].ppp.queue dataCapacity -1b
attr unit b
par MultiCell.router.ppp[1].ppp.queue dropperClass "\"inet::queueing::PacketAtCollectionEndDropper\""
par MultiCell.router.ppp[1].ppp.queue comparatorClass "\"\""
par MultiCell.router.ppp[1].ppp.queue bufferModule "\"\""
scalar MultiCell.router.ppp[1].ppp.queue packetPulled:count 1413
attr interpolationmode none
attr title "packet pulled, count"
scalar MultiCell.router.ppp[1].ppp.queue packetPulled:sum(packetBytes) 96084
attr interpolationmode none
attr title "packet pulled, sum(packetBytes)"
statistic MultiCell.router.ppp[1].ppp.queue queueingTime:histogram
field count 1413
field mean 0
field stddev 0
field min 0
field max 0
field sum 0
field sqrsum 0
attr interpolationmode none
attr source queueingTime(packetPulled)
attr title "queueing times, histogram"
attr unit s
bin	-inf	0
bin	-0.5	0
bin	-0.48	0
bin	-0.46	0
bin	-0.44	0
bin	-0.42	0
bin	-0.4	0
bin	-0.38	0
bin	-0.36	0
bin	-0.34	0
bin	-0.32	0
bin	-0.3	0
bin	-0.28	0
bin	-0.26	0
bin	-0.24	0
bin	-0.22	0
bin	-0.2	0
bin	-0.18	0
bin	-0.16	0
bin	-0.14	0
bin	-0.12	0
bin	-0.1	0
bin	-0.08	0
bin	-0.06	0
bin	-0.04	0
bin	-0.02	0
bin	0	1413
bin	0.02	0
bin	0.04	0
bin	0.06	0
bin	0.08	0
bin	0.1	0
bin	0.12	0
bin	0.14	0
bin	0.16	0
bin	0.18	0
bin	0.2	0
bin	0.22	0
bin	0.24	0
bin	0.26	0
bin	0.28	0
bin	0.3	0
bin	0.32	0
bin	0.34	0
bin	0.36	0
bin	0.38	0
bin	0.4	0
bin	0.42	0
bin	0.44	0
bin	0.46	0
bin	0.48	0
bin	0.5	0
scalar MultiCell.router.ppp[1].ppp.queue queueLength:max 1
attr autoWarmupFilter false
attr interpolationmode sample-hold
attr source "warmup(count(packetPushed) - count(packetPulled) - count(packetRemoved) - count(packetDropped))"
attr title "queue length, max"
attr type int
scalar MultiCell.router.ppp[1].ppp.queue queueLength:timeavg 0
attr autoWarmupFilter false
attr interpolationmode sample-hold
attr source "warmup(count(packetPushed) - count(packetPulled) - count(packetRemoved) - count(packetDropped))"
attr title "queue length, timeavg"
attr type int
scalar MultiCell.router.ppp[1].ppp.queue packetPushed:count 1413
attr interpolationmode none
attr title "packet pushed, count"
scalar MultiCell.router.ppp[1].ppp.queue packetPushed:sum(packetBytes) 96084
attr interpolationmode none
attr title "packet pushed, sum(packetBytes)"
scalar MultiCell.router.ppp[1].ppp.queue packetDropQueueOverflow:count 0
attr interpolationmode none
attr source packetDropReasonIsQueueOverflow(packetDropped)
attr title "packet drops: queue overflow, count"
scalar MultiCell.router.ppp[1].ppp.queue packetDropQueueOverflow:sum(packetBytes) 0
attr interpolationmode none
attr source packetDropReasonIsQueueOverflow(packetDropped)
attr title "packet drops: queue overflow, sum(packetBytes)"
scalar MultiCell.router.ppp[1].ppp.queue packetRemoved:count 0
attr interpolationmode none
attr title "packets removed, count"
scalar MultiCell.router.ppp[1].ppp.queue packetRemoved:sum(packetBytes) 0
attr interpolationmode none
attr title "packets removed, sum(packetBytes)"
par MultiCell.router.ppp[1].ppp typename "\"inet.linklayer.ppp.Ppp\""
par MultiCell.router.ppp[1].ppp interfaceTableModule "\"MultiCell.router.interfaceTable\""
par MultiCell.router.ppp[1].ppp displayStringTextFormat "\"rate: %b\\nsent: %s, rcvd: %r\\nqueue: %q, drop: %d\""
par MultiCell.router.ppp[1].ppp sendRawBytes false
par MultiCell.router.ppp[1].ppp mtu 4470B
attr unit B
par MultiCell.router.ppp[1].ppp stopOperationExtraTime -1s
attr unit s
par MultiCell.router.ppp[1].ppp stopOperationTimeout 2s
attr unit s
scalar MultiCell.router.ppp[1].ppp transmissionState:timeavg 8.478e-06
attr interpolationmode sample-hold
attr source transmissionStateChanged
attr title "tx state, timeavg"
scalar MultiCell.router.ppp[1].ppp rxPkOk:count 0
attr interpolationmode none
attr source rxPkOk
attr title "packets received OK, count"
scalar MultiCell.router.ppp[1].ppp rxPkOk:sum(packetBytes) 0
attr interpolationmode none
attr source rxPkOk
attr title "packets received OK, sum(packetBytes)"
scalar MultiCell.router.ppp[1].ppp txPk:count 1413
attr interpolationmode none
attr source packetSentToLower
attr title "packets transmitted, count"
scalar MultiCell.router.ppp[1].ppp txPk:sum(packetBytes) 105975
attr interpolationmode none
attr source packetSentToLower
attr title "packets transmitted, sum(packetBytes)"
scalar MultiCell.router.ppp[1].ppp rcvdPkFromHl:count 1413
attr interpolationmode none
attr source packetReceivedFromUpper
attr title "packets received from higher layer, count"
scalar MultiCell.router.ppp[1].ppp rcvdPkFromHl:sum(packetBytes) 96084
attr interpolationmode none
attr source packetReceivedFromUpper
attr title "packets received from higher layer, sum(packetBytes)"
scalar MultiCell.router.ppp[1].ppp passedUpPk:count 0
attr interpolationmode none
attr source packetSentToUpper
attr title "packets passed to higher layer, count"
scalar MultiCell.router.ppp[1].ppp passedUpPk:sum(packetBytes) 0
attr interpolationmode none
attr source packetSentToUpper
attr title "packets passed to higher layer, sum(packetBytes)"
scalar MultiCell.router.ppp[1].ppp packetDropIncorrectlyReceived:count 0
attr interpolationmode none
attr source packetDropReasonIsIncorrectlyReceived(packetDropped)
attr title "packet drop: incorrectly received, count"
scalar MultiCell.router.ppp[1].ppp packetDropIncorrectlyReceived:sum(packetBytes) 0
attr interpolationmode none
attr source packetDropReasonIsIncorrectlyReceived(packetDropped)
attr title "packet drop: incorrectly received, sum(packetBytes)"
scalar MultiCell.router.ppp[1].ppp packetDropInterfaceDown:count 0
attr interpolationmode none
attr source packetDropReasonIsInterfaceDown(packetDropped)
attr title "packet drop: interface down, count"
scalar MultiCell.router.ppp[1].ppp packetDropInterfaceDown:sum(packetBytes) 0
attr interpolationmode none
attr source packetDropReasonIsInterfaceDown(packetDropped)
attr title "packet drop: interface down, sum(packetBytes)"
par MultiCell.router.ppp[1] typename "\"inet.linklayer.ppp.PppInterface\""
par MultiCell.router.ppp[1] displayStringTextFormat "\"%a (%i)\\n%m\""
par MultiCell.router.ppp[1] recordPcap false
par MultiCell.router.ppp[1] numPcapRecorders 0
par MultiCell.router.ppp[1] interfaceTableModule "\"MultiCell.router.interfaceTable\""
par MultiCell.router.ipv4.transportIn.channel typename "\"ned.IdealChannel\""
par MultiCell.router.ipv4.up.out[0].channel typename "\"ned.IdealChannel\""
par MultiCell.router.ipv4.lp.out[2].channel typename "\"ned.IdealChannel\""
par MultiCell.router.ipv4.ifIn.channel typename "\"ned.IdealChannel\""
par MultiCell.router.ipv4.configurator typename "\"inet.networklayer.configurator.ipv4.Ipv4NodeConfigurator\""
par MultiCell.router.ipv4.configurator interfaceTableModule "\"MultiCell.router.interfaceTable\""
par MultiCell.router.ipv4.configurator routingTableModule "\"MultiCell.router.ipv4.routingTable\""
par MultiCell.router.ipv4.configurator networkConfiguratorModule "\"configurator\""
par MultiCell.router.ipv4.configurator configureRoutingTable true
par MultiCell.router.ipv4.routingTable typename "\"inet.networklayer.ipv4.Ipv4RoutingTable\""
par MultiCell.router.ipv4.routingTable interfaceTableModule "\"MultiCell.router.interfaceTable\""
par MultiCell.router.ipv4.routingTable routerId "\"auto\""
par MultiCell.router.ipv4.routingTable netmaskRoutes "\"*\""
par MultiCell.router.ipv4.routingTable forwarding true
par MultiCell.router.ipv4.routingTable multicastForwarding false
par MultiCell.router.ipv4.routingTable useAdminDist false
par MultiCell.router.ipv4.routingTable routingFile "\"\""
par MultiCell.router.ipv4.natTable typename "\"inet.networklayer.ipv4.Ipv4NatTable\""
par MultiCell.router.ipv4.natTable networkProtocolModule "\"^.ip\""
par MultiCell.router.ipv4.natTable config "<config/> at content:1"
par MultiCell.router.ipv4.up typename "\"inet.common.MessageDispatcher\""
par MultiCell.router.ipv4.up displayStringTextFormat "\"processed %p pk (%l)\""
par MultiCell.router.ipv4.igmp typename "\"inet.networklayer.ipv4.Igmpv2\""
par MultiCell.router.ipv4.igmp interfaceTableModule "\"MultiCell.router.interfaceTable\""
par MultiCell.router.ipv4.igmp routingTableModule "\"MultiCell.router.ipv4.routingTable\""
par MultiCell.router.ipv4.igmp crcMode "\"declared\""
attr enum declared,computed
par MultiCell.router.ipv4.igmp enabled true
par MultiCell.router.ipv4.igmp robustnessVariable 2
par MultiCell.router.ipv4.igmp queryInterval 125s
attr unit s
par MultiCell.router.ipv4.igmp queryResponseInterval 10s
attr unit s
par MultiCell.router.ipv4.igmp groupMembershipInterval 260s
attr unit s
par MultiCell.router.ipv4.igmp otherQuerierPresentInterval 255s
attr unit s
par MultiCell.router.ipv4.igmp startupQueryInterval 31.25s
attr unit s
par MultiCell.router.ipv4.igmp startupQueryCount 2
par MultiCell.router.ipv4.igmp lastMemberQueryInterval 1s
attr unit s
par MultiCell.router.ipv4.igmp lastMemberQueryCount 2
par MultiCell.router.ipv4.igmp unsolicitedReportInterval 10s
attr unit s
par MultiCell.router.ipv4.icmp typename "\"inet.networklayer.ipv4.Icmp\""
par MultiCell.router.ipv4.icmp interfaceTableModule "\"MultiCell.router.interfaceTable\""
par MultiCell.router.ipv4.icmp routingTableModule "\"MultiCell.router.ipv4.routingTable\""
par MultiCell.router.ipv4.icmp crcMode "\"declared\""
attr enum declared,computed
par MultiCell.router.ipv4.icmp quoteLength 8B
attr unit B
par MultiCell.router.ipv4.mp typename "\"inet.common.MessageDispatcher\""
par MultiCell.router.ipv4.mp displayStringTextFormat "\"processed %p pk (%l)\""
par MultiCell.router.ipv4.ip typename "\"inet.networklayer.ipv4.Ipv4\""
par MultiCell.router.ipv4.ip interfaceTableModule "\"MultiCell.router.interfaceTable\""
par MultiCell.router.ipv4.ip routingTableModule "\"MultiCell.router.ipv4.routingTable\""
par MultiCell.router.ipv4.ip arpModule "\"MultiCell.router.ipv4.arp\""
par MultiCell.router.ipv4.ip icmpModule "\"MultiCell.router.ipv4.icmp\""
par MultiCell.router.ipv4.ip crcMode "\"declared\""
attr enum declared,computed
par MultiCell.router.ipv4.ip timeToLive 32
par MultiCell.router.ipv4.ip multicastTimeToLive 32
par MultiCell.router.ipv4.ip fragmentTimeout 60s
attr unit s
par MultiCell.router.ipv4.ip limitedBroadcast false
par MultiCell.router.ipv4.ip directBroadcastInterfaces "\"\""
scalar MultiCell.router.ipv4.ip packetDropAddressResolutionFailed:count 0
attr interpolationmode none
attr source packetDropReasonIsAddressResolutionFailed(packetDropped)
attr title "packet drop: address resolution failed, count"
scalar MultiCell.router.ipv4.ip packetDropAddressResolutionFailed:sum(packetBytes) 0
attr interpolationmode none
attr source packetDropReasonIsAddressResolutionFailed(packetDropped)
attr title "packet drop: address resolution failed, sum(packetBytes)"
scalar MultiCell.router.ipv4.ip packetDropHopLimitReached:count 0
attr interpolationmode none
attr source packetDropReasonIsHopLimitReached(packetDropped)
attr title "packet drop: hop limit reached, count"
scalar MultiCell.router.ipv4.ip packetDropHopLimitReached:sum(packetBytes) 0
attr interpolationmode none
attr source packetDropReasonIsHopLimitReached(packetDropped)
attr title "packet drop: hop limit reached, sum(packetBytes)"
scalar MultiCell.router.ipv4.ip packetDropForwardingDisabled:count 0
attr interpolationmode none
attr source packetDropReasonIsForwardingDisabled(packetDropped)
attr title "packet drop: forwarding disabled, count"
scalar MultiCell.router.ipv4.ip packetDropForwardingDisabled:sum(packetBytes) 0
attr interpolationmode none
attr source packetDropReasonIsForwardingDisabled(packetDropped)
attr title "packet drop: forwarding disabled, sum(packetBytes)"
scalar MultiCell.router.ipv4.ip packetDropNoInterfaceFound:count 0
attr interpolationmode none
attr source packetDropReasonIsNoInterfaceFound(packetDropped)
attr title "packet drop: no interface found, count"
scalar MultiCell.router.ipv4.ip packetDropNoInterfaceFound:sum(packetBytes) 0
attr interpolationmode none
attr source packetDropReasonIsNoInterfaceFound(packetDropped)
attr title "packet drop: no interface found, sum(packetBytes)"
scalar MultiCell.router.ipv4.ip packetDropNoRouteFound:count 0
attr interpolationmode none
attr source packetDropReasonIsNoRouteFound(packetDropped)
attr title "packet drop: no route found, count"
scalar MultiCell.router.ipv4.ip packetDropNoRouteFound:sum(packetBytes) 0
attr interpolationmode none
attr source packetDropReasonIsNoRouteFound(packetDropped)
attr title "packet drop: no route found, sum(packetBytes)"
scalar MultiCell.router.ipv4.ip packetDropUndefined:count 0
attr interpolationmode none
attr source packetDropReasonIsUndefined(packetDropped)
attr title "packet drop: undefined, count"
scalar MultiCell.router.ipv4.ip packetDropUndefined:sum(packetBytes) 0
attr interpolationmode none
attr source packetDropReasonIsUndefined(packetDropped)
attr title "packet drop: undefined, sum(packetBytes)"
par MultiCell.router.ipv4.arp typename "\"inet.networklayer.arp.ipv4.Arp\""
par MultiCell.router.ipv4.arp interfaceTableModule "\"MultiCell.router.interfaceTable\""
par MultiCell.router.ipv4.arp routingTableModule "\"MultiCell.router.ipv4.routingTable\""
par MultiCell.router.ipv4.arp retryTimeout 1s
attr unit s
par MultiCell.router.ipv4.arp retryCount 3
par MultiCell.router.ipv4.arp cacheTimeout 120s
attr unit s
par MultiCell.router.ipv4.arp proxyArpInterfaces "\"*\""
scalar MultiCell.router.ipv4.arp arpResolutionFailed:count 0
attr title "ARP failed resolutions, count"
scalar MultiCell.router.ipv4.arp arpResolutionCompleted:count 0
attr title "ARP completed resolutions, count"
scalar MultiCell.router.ipv4.arp arpResolutionInitiated:count 0
attr title "ARP initiated resolutions, count"
scalar MultiCell.router.ipv4.arp arpReplySent:count 0
attr source arpReplySent
attr title "ARP replies sent, count"
scalar MultiCell.router.ipv4.arp arpReplySent:sum(packetBytes) 0
attr source arpReplySent
attr title "ARP replies sent, sum(packetBytes)"
scalar MultiCell.router.ipv4.arp arpRequestSent:count 0
attr source arpRequestSent
attr title "ARP request sent, count"
scalar MultiCell.router.ipv4.arp arpRequestSent:sum(packetBytes) 0
attr source arpRequestSent
attr title "ARP request sent, sum(packetBytes)"
par MultiCell.router.ipv4.lp typename "\"inet.common.MessageDispatcher\""
par MultiCell.router.ipv4.lp displayStringTextFormat "\"processed %p pk (%l)\""
par MultiCell.router.ipv4 typename "\"inet.networklayer.ipv4.Ipv4NetworkLayer\""
par MultiCell.router.ipv4 forwarding true
par MultiCell.router.ipv4 multicastForwarding false
par MultiCell.router.ipv4 interfaceTableModule "\"MultiCell.router.interfaceTable\""
par MultiCell.router.ipv4 displayStringTextFormat "\"%i\""
par MultiCell.router.nl typename "\"inet.common.MessageDispatcher\""
par MultiCell.router.nl displayStringTextFormat "\"processed %p pk (%l)\""
par MultiCell.router.tn typename "\"inet.common.MessageDispatcher\""
par MultiCell.router.tn displayStringTextFormat "\"processed %p pk (%l)\""
par MultiCell.router.at typename "\"inet.common.MessageDispatcher\""
par MultiCell.router.at displayStringTextFormat "\"processed %p pk (%l)\""
par MultiCell.router typename "\"inet.node.inet.Router\""
par MultiCell.router hasStatus false
par MultiCell.router osgModel "\"\""
par MultiCell.router osgModelColor "\"\""
par MultiCell.router canvasImage "\"\""
par MultiCell.router canvasImageColor "\"\""
par MultiCell.router recordPcap false
par MultiCell.router numPcapRecorders 0
par MultiCell.router numLoInterfaces 1
par MultiCell.router numWlanInterfaces 0
par MultiCell.router numEthInterfaces 0
par MultiCell.router numPppInterfaces 0
par MultiCell.router numTunInterfaces 0
par MultiCell.router numVirtInterfaces 0
par MultiCell.router hasIpv4 true
par MultiCell.router hasIpv6 false
par MultiCell.router hasGn false
par MultiCell.router forwarding true
par MultiCell.router multicastForwarding false
par MultiCell.router hasUdp false
par MultiCell.router hasTcp false
par MultiCell.router hasSctp false
par MultiCell.router numApps 0
par MultiCell.router hasEigrp false
par MultiCell.router hasOspf false
par MultiCell.router hasRip false
par MultiCell.router hasBgp false
par MultiCell.router hasPim false
par MultiCell.router hasDhcp false
par MultiCell.pgw.pppg$i[0].channel typename "\"ned.IdealChannel\""
par MultiCell.pgw.ppp[0].phys$o.channel typename "\"ned.IdealChannel\""
par MultiCell.pgw.pppg$i[1].channel typename "\"ned.IdealChannel\""
par MultiCell.pgw.ppp[1].phys$o.channel typename "\"ned.IdealChannel\""
par MultiCell.pgw.interfaceTable typename "\"inet.networklayer.common.InterfaceTable\""
par MultiCell.pgw.interfaceTable displayAddresses false
par MultiCell.pgw.li typename "\"inet.common.MessageDispatcher\""
par MultiCell.pgw.li displayStringTextFormat "\"processed %p pk (%l)\""
par MultiCell.pgw.lo[0].upperLayerIn.channel typename "\"ned.IdealChannel\""
par MultiCell.pgw.lo[0].lo.upperLayerOut.channel typename "\"ned.IdealChannel\""
par MultiCell.pgw.lo[0].lo typename "\"inet.linklayer.loopback.Loopback\""
par MultiCell.pgw.lo[0].lo interfaceTableModule "\"MultiCell.pgw.interfaceTable\""
par MultiCell.pgw.lo[0].lo mtu 4470B
attr unit B
scalar MultiCell.pgw.lo[0].lo rcvdPkFromHl:count 0
attr interpolationmode none
attr source packetReceivedFromUpper
attr title "packets received from higher layer, count"
scalar MultiCell.pgw.lo[0].lo rcvdPkFromHl:sum(packetBytes) 0
attr interpolationmode none
attr source packetReceivedFromUpper
attr title "packets received from higher layer, sum(packetBytes)"
scalar MultiCell.pgw.lo[0].lo passedUpPk:count 0
attr interpolationmode none
attr source packetSentToUpper
attr title "packets passed to higher layer, count"
scalar MultiCell.pgw.lo[0].lo passedUpPk:sum(packetBytes) 0
attr interpolationmode none
attr source packetSentToUpper
attr title "packets passed to higher layer, sum(packetBytes)"
par MultiCell.pgw.lo[0] typename "\"inet.linklayer.loopback.LoopbackInterface\""
par MultiCell.pgw.lo[0] displayStringTextFormat "\"%a (%i)\\n%m\""
par MultiCell.pgw.lo[0] recordPcap false
par MultiCell.pgw.lo[0] numPcapRecorders 0
par MultiCell.pgw.lo[0] interfaceTableModule "\"MultiCell.pgw.interfaceTable\""
par MultiCell.pgw.ppp[0].upperLayerIn.channel typename "\"ned.IdealChannel\""
par MultiCell.pgw.ppp[0].phys$i.channel typename "\"ned.IdealChannel\""
par MultiCell.pgw.ppp[0].ppp.phys$o.channel typename "\"ned.IdealChannel\""
par MultiCell.pgw.ppp[0].ppp.upperLayerOut.channel typename "\"ned.IdealChannel\""
par MultiCell.pgw.ppp[0].ppp.queue typename "\"inet.queueing.queue.DropTailQueue\""
par MultiCell.pgw.ppp[0].ppp.queue displayStringTextFormat "\"contains %p pk (%l) pushed %u\\npulled %o removed %r dropped %d\""
par MultiCell.pgw.ppp[0].ppp.queue packetCapacity 10000
par MultiCell.pgw.ppp[0].ppp.queue dataCapacity -1b
attr unit b
par MultiCell.pgw.ppp[0].ppp.queue dropperClass "\"inet::queueing::PacketAtCollectionEndDropper\""
par MultiCell.pgw.ppp[0].ppp.queue comparatorClass "\"\""
par MultiCell.pgw.ppp[0].ppp.queue bufferModule "\"\""
scalar MultiCell.pgw.ppp[0].ppp.queue packetPulled:count 630
attr interpolationmode none
attr title "packet pulled, count"
scalar MultiCell.pgw.ppp[0].ppp.queue packetPulled:sum(packetBytes) 65520
attr interpolationmode none
attr title "packet pulled, sum(packetBytes)"
statistic MultiCell.pgw.ppp[0].ppp.queue queueingTime:histogram
field count 630
field mean 0
field stddev 0
field min 0
field max 0
field sum 0
field sqrsum 0
attr interpolationmode none
attr source queueingTime(packetPulled)
attr title "queueing times, histogram"
attr unit s
bin	-inf	0
bin	-0.5	0
bin	-0.48	0
bin	-0.46	0
bin	-0.44	0
bin	-0.42	0
bin	-0.4	0
bin	-0.38	0
bin	-0.36	0
bin	-0.34	0
bin	-0.32	0
bin	-0.3	0
bin	-0.28	0
bin	-0.26	0
bin	-0.24	0
bin	-0.22	0
bin	-0.2	0
bin	-0.18	0
bin	-0.16	0
bin	-0.14	0
bin	-0.12	0
bin	-0.1	0
bin	-0.08	0
bin	-0.06	0
bin	-0.04	0
bin	-0.02	0
bin	0	630
bin	0.02	0
bin	0.04	0
bin	0.06	0
bin	0.08	0
bin	0.1	0
bin	0.12	0
bin	0.14	0
bin	0.16	0
bin	0.18	0
bin	0.2	0
bin	0.22	0
bin	0.24	0
bin	0.26	0
bin	0.28	0
bin	0.3	0
bin	0.32	0
bin	0.34	0
bin	0.36	0
bin	0.38	0
bin	0.4	0
bin	0.42	0
bin	0.44	0
bin	0.46	0
bin	0.48	0
bin	0.5	0
scalar MultiCell.pgw.ppp[0].ppp.queue queueLength:max 1
attr autoWarmupFilter false
attr interpolationmode sample-hold
attr source "warmup(count(packetPushed) - count(packetPulled) - count(packetRemoved) - count(packetDropped))"
attr title "queue length, max"
attr type int
scalar MultiCell.pgw.ppp[0].ppp.queue queueLength:timeavg 0
attr autoWarmupFilter false
attr interpolationmode sample-hold
attr source "warmup(count(packetPushed) - count(packetPulled) - count(packetRemoved) - count(packetDropped))"
attr title "queue length, timeavg"
attr type int
scalar MultiCell.pgw.ppp[0].ppp.queue packetPushed:count 630
attr interpolationmode none
attr title "packet pushed, count"
scalar MultiCell.pgw.ppp[0].ppp.queue packetPushed:sum(packetBytes) 65520
attr interpolationmode none
attr title "packet pushed, sum(packetBytes)"
scalar MultiCell.pgw.ppp[0].ppp.queue packetDropQueueOverflow:count 0
attr interpolationmode none
attr source packetDropReasonIsQueueOverflow(packetDropped)
attr title "packet drops: queue overflow, count"
scalar MultiCell.pgw.ppp[0].ppp.queue packetDropQueueOverflow:sum(packetBytes) 0
attr interpolationmode none
attr source packetDropReasonIsQueueOverflow(packetDropped)
attr title "packet drops: queue overflow, sum(packetBytes)"
scalar MultiCell.pgw.ppp[0].ppp.queue packetRemoved:count 0
attr interpolationmode none
attr title "packets removed, count"
scalar MultiCell.pgw.ppp[0].ppp.queue packetRemoved:sum(packetBytes) 0
attr interpolationmode none
attr title "packets removed, sum(packetBytes)"
par MultiCell.pgw.ppp[0].ppp typename "\"inet.linklayer.ppp.Ppp\""
par MultiCell.pgw.ppp[0].ppp interfaceTableModule "\"MultiCell.pgw.interfaceTable\""
par MultiCell.pgw.ppp[0].ppp displayStringTextFormat "\"rate: %b\\nsent: %s, rcvd: %r\\nqueue: %q, drop: %d\""
par MultiCell.pgw.ppp[0].ppp sendRawBytes false
par MultiCell.pgw.ppp[0].ppp mtu 4470B
attr unit B
par MultiCell.pgw.ppp[0].ppp stopOperationExtraTime -1s
attr unit s
par MultiCell.pgw.ppp[0].ppp stopOperationTimeout 2s
attr unit s
scalar MultiCell.pgw.ppp[0].ppp transmissionState:timeavg 5.5944e-06
attr interpolationmode sample-hold
attr source transmissionStateChanged
attr title "tx state, timeavg"
scalar MultiCell.pgw.ppp[0].ppp rxPkOk:count 0
attr interpolationmode none
attr source rxPkOk
attr title "packets received OK, count"
scalar MultiCell.pgw.ppp[0].ppp rxPkOk:sum(packetBytes) 0
attr interpolationmode none
attr source rxPkOk
attr title "packets received OK, sum(packetBytes)"
scalar MultiCell.pgw.ppp[0].ppp txPk:count 630
attr interpolationmode none
attr source packetSentToLower
attr title "packets transmitted, count"
scalar MultiCell.pgw.ppp[0].ppp txPk:sum(packetBytes) 69930
attr interpolationmode none
attr source packetSentToLower
attr title "packets transmitted, sum(packetBytes)"
scalar MultiCell.pgw.ppp[0].ppp rcvdPkFromHl:count 630
attr interpolationmode none
attr source packetReceivedFromUpper
attr title "packets received from higher layer, count"
scalar MultiCell.pgw.ppp[0].ppp rcvdPkFromHl:sum(packetBytes) 65520
attr interpolationmode none
attr source packetReceivedFromUpper
attr title "packets received from higher layer, sum(packetBytes)"
scalar MultiCell.pgw.ppp[0].ppp passedUpPk:count 0
attr interpolationmode none
attr source packetSentToUpper
attr title "packets passed to higher layer, count"
scalar MultiCell.pgw.ppp[0].ppp passedUpPk:sum(packetBytes) 0
attr interpolationmode none
attr source packetSentToUpper
attr title "packets passed to higher layer, sum(packetBytes)"
scalar MultiCell.pgw.ppp[0].ppp packetDropIncorrectlyReceived:count 0
attr interpolationmode none
attr source packetDropReasonIsIncorrectlyReceived(packetDropped)
attr title "packet drop: incorrectly received, count"
scalar MultiCell.pgw.ppp[0].ppp packetDropIncorrectlyReceived:sum(packetBytes) 0
attr interpolationmode none
attr source packetDropReasonIsIncorrectlyReceived(packetDropped)
attr title "packet drop: incorrectly received, sum(packetBytes)"
scalar MultiCell.pgw.ppp[0].ppp packetDropInterfaceDown:count 0
attr interpolationmode none
attr source packetDropReasonIsInterfaceDown(packetDropped)
attr title "packet drop: interface down, count"
scalar MultiCell.pgw.ppp[0].ppp packetDropInterfaceDown:sum(packetBytes) 0
attr interpolationmode none
attr source packetDropReasonIsInterfaceDown(packetDropped)
attr title "packet drop: interface down, sum(packetBytes)"
par MultiCell.pgw.ppp[0] typename "\"inet.linklayer.ppp.PppInterface\""
par MultiCell.pgw.ppp[0] displayStringTextFormat "\"%a (%i)\\n%m\""
par MultiCell.pgw.ppp[0] recordPcap false
par MultiCell.pgw.ppp[0] numPcapRecorders 0
par MultiCell.pgw.ppp[0] interfaceTableModule "\"MultiCell.pgw.interfaceTable\""
par MultiCell.pgw.ppp[1].upperLayerIn.channel typename "\"ned.IdealChannel\""
par MultiCell.pgw.ppp[1].phys$i.channel typename "\"ned.IdealChannel\""
par MultiCell.pgw.ppp[1].ppp.phys$o.channel typename "\"ned.IdealChannel\""
par MultiCell.pgw.ppp[1].ppp.upperLayerOut.channel typename "\"ned.IdealChannel\""
par MultiCell.pgw.ppp[1].ppp.queue typename "\"inet.queueing.queue.DropTailQueue\""
par MultiCell.pgw.ppp[1].ppp.queue displayStringTextFormat "\"contains %p pk (%l) pushed %u\\npulled %o removed %r dropped %d\""
par MultiCell.pgw.ppp[1].ppp.queue packetCapacity 10000
par MultiCell.pgw.ppp[1].ppp.queue dataCapacity -1b
attr unit b
par MultiCell.pgw.ppp[1].ppp.queue dropperClass "\"inet::queueing::PacketAtCollectionEndDropper\""
par MultiCell.pgw.ppp[1].ppp.queue comparatorClass "\"\""
par MultiCell.pgw.ppp[1].ppp.queue bufferModule "\"\""
scalar MultiCell.pgw.ppp[1].ppp.queue packetPulled:count 783
attr interpolationmode none
attr title "packet pulled, count"
scalar MultiCell.pgw.ppp[1].ppp.queue packetPulled:sum(packetBytes) 81432
attr interpolationmode none
attr title "packet pulled, sum(packetBytes)"
statistic MultiCell.pgw.ppp[1].ppp.queue queueingTime:histogram
field count 783
field mean 0
field stddev 0
field min 0
field max 0
field sum 0
field sqrsum 0
attr interpolationmode none
attr source queueingTime(packetPulled)
attr title "queueing times, histogram"
attr unit s
bin	-inf	0
bin	-0.5	0
bin	-0.48	0
bin	-0.46	0
bin	-0.44	0
bin	-0.42	0
bin	-0.4	0
bin	-0.38	0
bin	-0.36	0
bin	-0.34	0
bin	-0.32	0
bin	-0.3	0
bin	-0.28	0
bin	-0.26	0
bin	-0.24	0
bin	-0.22	0
bin	-0.2	0
bin	-0.18	0
bin	-0.16	0
bin	-0.14	0
bin	-0.12	0
bin	-0.1	0
bin	-0.08	0
bin	-0.06	0
bin	-0.04	0
bin	-0.02	0
bin	0	783
bin	0.02	0
bin	0.04	0
bin	0.06	0
bin	0.08	0
bin	0.1	0
bin	0.12	0
bin	0.14	0
bin	0.16	0
bin	0.18	0
bin	0.2	0
bin	0.22	0
bin	0.24	0
bin	0.26	0
bin	0.28	0
bin	0.3	0
bin	0.32	0
bin	0.34	0
bin	0.36	0
bin	0.38	0
bin	0.4	0
bin	0.42	0
bin	0.44	0
bin	0.46	0
bin	0.48	0
bin	0.5	0
scalar MultiCell.pgw.ppp[1].ppp.queue queueLength:max 1
attr autoWarmupFilter false
attr interpolationmode sample-hold
attr source "warmup(count(packetPushed) - count(packetPulled) - count(packetRemoved) - count(packetDropped))"
attr title "queue length, max"
attr type int
scalar MultiCell.pgw.ppp[1].ppp.queue queueLength:timeavg 0
attr autoWarmupFilter false
attr interpolationmode sample-hold
attr source "warmup(count(packetPushed) - count(packetPulled) - count(packetRemoved) - count(packetDropped))"
attr title "queue length, timeavg"
attr type int
scalar MultiCell.pgw.ppp[1].ppp.queue packetPushed:count 783
attr interpolationmode none
attr title "packet pushed, count"
scalar MultiCell.pgw.ppp[1].ppp.queue packetPushed:sum(packetBytes) 81432
attr interpolationmode none
attr title "packet pushed, sum(packetBytes)"
scalar MultiCell.pgw.ppp[1].ppp.queue packetDropQueueOverflow:count 0
attr interpolationmode none
attr source packetDropReasonIsQueueOverflow(packetDropped)
attr title "packet drops: queue overflow, count"
scalar MultiCell.pgw.ppp[1].ppp.queue packetDropQueueOverflow:sum(packetBytes) 0
attr interpolationmode none
attr source packetDropReasonIsQueueOverflow(packetDropped)
attr title "packet drops: queue overflow, sum(packetBytes)"
scalar MultiCell.pgw.ppp[1].ppp.queue packetRemoved:count 0
attr interpolationmode none
attr title "packets removed, count"
scalar MultiCell.pgw.ppp[1].ppp.queue packetRemoved:sum(packetBytes) 0
attr interpolationmode none
attr title "packets removed, sum(packetBytes)"
par MultiCell.pgw.ppp[1].ppp typename "\"inet.linklayer.ppp.Ppp\""
par MultiCell.pgw.ppp[1].ppp interfaceTableModule "\"MultiCell.pgw.interfaceTable\""
par MultiCell.pgw.ppp[1].ppp displayStringTextFormat "\"rate: %b\\nsent: %s, rcvd: %r\\nqueue: %q, drop: %d\""
par MultiCell.pgw.ppp[1].ppp sendRawBytes false
par MultiCell.pgw.ppp[1].ppp mtu 4470B
attr unit B
par MultiCell.pgw.ppp[1].ppp stopOperationExtraTime -1s
attr unit s
par MultiCell.pgw.ppp[1].ppp stopOperationTimeout 2s
attr unit s
scalar MultiCell.pgw.ppp[1].ppp transmissionState:timeavg 6.95304e-06
attr interpolationmode sample-hold
attr source transmissionStateChanged
attr title "tx state, timeavg"
scalar MultiCell.pgw.ppp[1].ppp rxPkOk:count 0
attr interpolationmode none
attr source rxPkOk
attr title "packets received OK, count"
scalar MultiCell.pgw.ppp[1].ppp rxPkOk:sum(packetBytes) 0
attr interpolationmode none
attr source rxPkOk
attr title "packets received OK, sum(packetBytes)"
scalar MultiCell.pgw.ppp[1].ppp txPk:count 783
attr interpolationmode none
attr source packetSentToLower
attr title "packets transmitted, count"
scalar MultiCell.pgw.ppp[1].ppp txPk:sum(packetBytes) 86913
attr interpolationmode none
attr source packetSentToLower
attr title "packets transmitted, sum(packetBytes)"
scalar MultiCell.pgw.ppp[1].ppp rcvdPkFromHl:count 783
attr interpolationmode none
attr source packetReceivedFromUpper
attr title "packets received from higher layer, count"
scalar MultiCell.pgw.ppp[1].ppp rcvdPkFromHl:sum(packetBytes) 81432
attr interpolationmode none
attr source packetReceivedFromUpper
attr title "packets received from higher layer, sum(packetBytes)"
scalar MultiCell.pgw.ppp[1].ppp passedUpPk:count 0
attr interpolationmode none
attr source packetSentToUpper
attr title "packets passed to higher layer, count"
scalar MultiCell.pgw.ppp[1].ppp passedUpPk:sum(packetBytes) 0
attr interpolationmode none
attr source packetSentToUpper
attr title "packets passed to higher layer, sum(packetBytes)"
scalar MultiCell.pgw.ppp[1].ppp packetDropIncorrectlyReceived:count 0
attr interpolationmode none
attr source packetDropReasonIsIncorrectlyReceived(packetDropped)
attr title "packet drop: incorrectly received, count"
scalar MultiCell.pgw.ppp[1].ppp packetDropIncorrectlyReceived:sum(packetBytes) 0
attr interpolationmode none
attr source packetDropReasonIsIncorrectlyReceived(packetDropped)
attr title "packet drop: incorrectly received, sum(packetBytes)"
scalar MultiCell.pgw.ppp[1].ppp packetDropInterfaceDown:count 0
attr interpolationmode none
attr source packetDropReasonIsInterfaceDown(packetDropped)
attr title "packet drop: interface down, count"
scalar MultiCell.pgw.ppp[1].ppp packetDropInterfaceDown:sum(packetBytes) 0
attr interpolationmode none
attr source packetDropReasonIsInterfaceDown(packetDropped)
attr title "packet drop: interface down, sum(packetBytes)"
par MultiCell.pgw.ppp[1] typename "\"inet.linklayer.ppp.PppInterface\""
par MultiCell.pgw.ppp[1] displayStringTextFormat "\"%a (%i)\\n%m\""
par MultiCell.pgw.ppp[1] recordPcap false
par MultiCell.pgw.ppp[1] numPcapRecorders 0
par MultiCell.pgw.ppp[1] interfaceTableModule "\"MultiCell.pgw.interfaceTable\""
par MultiCell.pgw.ipv4.transportIn.channel typename "\"ned.IdealChannel\""
par MultiCell.pgw.ipv4.up.out[0].channel typename "\"ned.IdealChannel\""
par MultiCell.pgw.ipv4.lp.out[2].channel typename "\"ned.IdealChannel\""
par MultiCell.pgw.ipv4.ifIn.channel typename "\"ned.IdealChannel\""
par MultiCell.pgw.ipv4.configurator typename "\"inet.networklayer.configurator.ipv4.Ipv4NodeConfigurator\""
par MultiCell.pgw.ipv4.configurator interfaceTableModule "\"MultiCell.pgw.interfaceTable\""
par MultiCell.pgw.ipv4.configurator routingTableModule "\"MultiCell.pgw.ipv4.routingTable\""
par MultiCell.pgw.ipv4.configurator networkConfiguratorModule "\"configurator\""
par MultiCell.pgw.ipv4.configurator configureRoutingTable true
par MultiCell.pgw.ipv4.routingTable typename "\"inet.networklayer.ipv4.Ipv4RoutingTable\""
par MultiCell.pgw.ipv4.routingTable interfaceTableModule "\"MultiCell.pgw.interfaceTable\""
par MultiCell.pgw.ipv4.routingTable routerId "\"auto\""
par MultiCell.pgw.ipv4.routingTable netmaskRoutes "\"*\""
par MultiCell.pgw.ipv4.routingTable forwarding true
par MultiCell.pgw.ipv4.routingTable multicastForwarding false
par MultiCell.pgw.ipv4.routingTable useAdminDist false
par MultiCell.pgw.ipv4.routingTable routingFile "\"\""
par MultiCell.pgw.ipv4.natTable typename "\"inet.networklayer.ipv4.Ipv4NatTable\""
par MultiCell.pgw.ipv4.natTable networkProtocolModule "\"^.ip\""
par MultiCell.pgw.ipv4.natTable config "<config/> at content:1"
par MultiCell.pgw.ipv4.up typename "\"inet.common.MessageDispatcher\""
par MultiCell.pgw.ipv4.up displayStringTextFormat "\"processed %p pk (%l)\""
par MultiCell.pgw.ipv4.igmp typename "\"inet.networklayer.ipv4.Igmpv2\""
par MultiCell.pgw.ipv4.igmp interfaceTableModule "\"MultiCell.pgw.interfaceTable\""
par MultiCell.pgw.ipv4.igmp routingTableModule "\"MultiCell.pgw.ipv4.routingTable\""
par MultiCell.pgw.ipv4.igmp crcMode "\"declared\""
attr enum declared,computed
par MultiCell.pgw.ipv4.igmp enabled true
par MultiCell.pgw.ipv4.igmp robustnessVariable 2
par MultiCell.pgw.ipv4.igmp queryInterval 125s
attr unit s
par MultiCell.pgw.ipv4.igmp queryResponseInterval 10s
attr unit s
par MultiCell.pgw.ipv4.igmp groupMembershipInterval 260s
attr unit s
par MultiCell.pgw.ipv4.igmp otherQuerierPresentInterval 255s
attr unit s
par MultiCell.pgw.ipv4.igmp startupQueryInterval 31.25s
attr unit s
par MultiCell.pgw.ipv4.igmp startupQueryCount 2
par MultiCell.pgw.ipv4.igmp lastMemberQueryInterval 1s
attr unit s
par MultiCell.pgw.ipv4.igmp lastMemberQueryCount 2
par MultiCell.pgw.ipv4.igmp unsolicitedReportInterval 10s
attr unit s
par MultiCell.pgw.ipv4.icmp typename "\"inet.networklayer.ipv4.Icmp\""
par MultiCell.pgw.ipv4.icmp interfaceTableModule "\"MultiCell.pgw.interfaceTable\""
par MultiCell.pgw.ipv4.icmp routingTableModule "\"MultiCell.pgw.ipv4.routingTable\""
par MultiCell.pgw.ipv4.icmp crcMode "\"declared\""
attr enum declared,computed
par MultiCell.pgw.ipv4.icmp quoteLength 8B
attr unit B
par MultiCell.pgw.ipv4.mp typename "\"inet.common.MessageDispatcher\""
par MultiCell.pgw.ipv4.mp displayStringTextFormat "\"processed %p pk (%l)\""
par MultiCell.pgw.ipv4.ip typename "\"inet.networklayer.ipv4.Ipv4\""
par MultiCell.pgw.ipv4.ip interfaceTableModule "\"MultiCell.pgw.interfaceTable\""
par MultiCell.pgw.ipv4.ip routingTableModule "\"MultiCell.pgw.ipv4.routingTable\""
par MultiCell.pgw.ipv4.ip arpModule "\"MultiCell.pgw.ipv4.arp\""
par MultiCell.pgw.ipv4.ip icmpModule "\"MultiCell.pgw.ipv4.icmp\""
par MultiCell.pgw.ipv4.ip crcMode "\"declared\""
attr enum declared,computed
par MultiCell.pgw.ipv4.ip timeToLive 32
par MultiCell.pgw.ipv4.ip multicastTimeToLive 32
par MultiCell.pgw.ipv4.ip fragmentTimeout 60s
attr unit s
par MultiCell.pgw.ipv4.ip limitedBroadcast false
par MultiCell.pgw.ipv4.ip directBroadcastInterfaces "\"\""
scalar MultiCell.pgw.ipv4.ip packetDropAddressResolutionFailed:count 0
attr interpolationmode none
attr source packetDropReasonIsAddressResolutionFailed(packetDropped)
attr title "packet drop: address resolution failed, count"
scalar MultiCell.pgw.ipv4.ip packetDropAddressResolutionFailed:sum(packetBytes) 0
attr interpolationmode none
attr source packetDropReasonIsAddressResolutionFailed(packetDropped)
attr title "packet drop: address resolution failed, sum(packetBytes)"
scalar MultiCell.pgw.ipv4.ip packetDropHopLimitReached:count 0
attr interpolationmode none
attr source packetDropReasonIsHopLimitReached(packetDropped)
attr title "packet drop: hop limit reached, count"
scalar MultiCell.pgw.ipv4.ip packetDropHopLimitReached:sum(packetBytes) 0
attr interpolationmode none
attr source packetDropReasonIsHopLimitReached(packetDropped)
attr title "packet drop: hop limit reached, sum(packetBytes)"
scalar MultiCell.pgw.ipv4.ip packetDropForwardingDisabled:count 0
attr interpolationmode none
attr source packetDropReasonIsForwardingDisabled(packetDropped)
attr title "packet drop: forwarding disabled, count"
scalar MultiCell.pgw.ipv4.ip packetDropForwardingDisabled:sum(packetBytes) 0
attr interpolationmode none
attr source packetDropReasonIsForwardingDisabled(packetDropped)
attr title "packet drop: forwarding disabled, sum(packetBytes)"
scalar MultiCell.pgw.ipv4.ip packetDropNoInterfaceFound:count 0
attr interpolationmode none
attr source packetDropReasonIsNoInterfaceFound(packetDropped)
attr title "packet drop: no interface found, count"
scalar MultiCell.pgw.ipv4.ip packetDropNoInterfaceFound:sum(packetBytes) 0
attr interpolationmode none
attr source packetDropReasonIsNoInterfaceFound(packetDropped)
attr title "packet drop: no interface found, sum(packetBytes)"
scalar MultiCell.pgw.ipv4.ip packetDropNoRouteFound:count 0
attr interpolationmode none
attr source packetDropReasonIsNoRouteFound(packetDropped)
attr title "packet drop: no route found, count"
scalar MultiCell.pgw.ipv4.ip packetDropNoRouteFound:sum(packetBytes) 0
attr interpolationmode none
attr source packetDropReasonIsNoRouteFound(packetDropped)
attr title "packet drop: no route found, sum(packetBytes)"
scalar MultiCell.pgw.ipv4.ip packetDropUndefined:count 0
attr interpolationmode none
attr source packetDropReasonIsUndefined(packetDropped)
attr title "packet drop: undefined, count"
scalar MultiCell.pgw.ipv4.ip packetDropUndefined:sum(packetBytes) 0
attr interpolationmode none
attr source packetDropReasonIsUndefined(packetDropped)
attr title "packet drop: undefined, sum(packetBytes)"
par MultiCell.pgw.ipv4.arp typename "\"inet.networklayer.arp.ipv4.Arp\""
par MultiCell.pgw.ipv4.arp interfaceTableModule "\"MultiCell.pgw.interfaceTable\""
par MultiCell.pgw.ipv4.arp routingTableModule "\"MultiCell.pgw.ipv4.routingTable\""
par MultiCell.pgw.ipv4.arp retryTimeout 1s
attr unit s
[...]
attr unit s
scalar MultiCell.ue22.cellularNic.rlc.um rlcCellPacketLossUl:mean -nan
attr source rlcCellPacketLossUl
attr title "rlc Cell Packet Loss, mean"
attr unit ""
scalar MultiCell.ue22.cellularNic.rlc.um rlcCellPacketLossDl:mean -nan
attr source rlcCellPacketLossDl
attr title "rlc Cell Packet Loss, mean"
attr unit ""
scalar MultiCell.ue22.cellularNic.rlc.um rlcCellThroughputDl:mean -nan
attr source rlcCellThroughputDl
attr title "Cell Throughput at the rlc layer DL, mean"
attr unit Bps
scalar MultiCell.ue22.cellularNic.rlc.um rlcCellThroughputUl:mean -nan
attr source rlcCellThroughputUl
attr title "Cell Throughput at the rlc layer UL, mean"
attr unit Bps
scalar MultiCell.ue22.cellularNic.rlc.um rlcPacketLossTotal:mean 0
attr source rlcPacketLossTotal
attr title "rlc Packet Loss, mean"
attr unit ""
scalar MultiCell.ue22.cellularNic.rlc.um rlcThroughputUl:mean -nan
attr source rlcThroughputUl
attr title "Throughput at the rlc layer UL, mean"
attr unit Bps
scalar MultiCell.ue22.cellularNic.rlc.um rlcDelayUl:mean -nan
attr source rlcDelayUl
attr title "Delay at the rlc layer UL, mean"
attr unit s
scalar MultiCell.ue22.cellularNic.rlc.um rlcThroughputDl:mean 3129.8839550255
attr source rlcThroughputDl
attr title "Throughput at the rlc layer DL, mean"
attr unit Bps
scalar MultiCell.ue22.cellularNic.rlc.um rlcDelayDl:mean 0.0043087545070651
attr source rlcDelayDl
attr title "Delay at the rlc layer DL, mean"
attr unit s
scalar MultiCell.ue22.cellularNic.rlc.um rlcPacketLossDl:mean 0
attr source rlcPacketLossDl
attr title "rlc Packet Loss, mean"
attr unit ""
scalar MultiCell.ue22.cellularNic.rlc.um rlcPacketLossDl:sum 0
attr source rlcPacketLossDl
attr title "rlc Packet Loss, sum"
attr unit ""
scalar MultiCell.ue22.cellularNic.rlc.um rlcPacketLossUl:mean -nan
attr source rlcPacketLossUl
attr title "rlc Packet Loss, mean"
attr unit ""
scalar MultiCell.ue22.cellularNic.rlc.um rlcPacketLossUl:sum 0
attr source rlcPacketLossUl
attr title "rlc Packet Loss, sum"
attr unit ""
scalar MultiCell.ue22.cellularNic.rlc.um sentPacketToLowerLayer:count 0
attr interpolationmode none
attr source sentPacketToLowerLayer
scalar MultiCell.ue22.cellularNic.rlc.um sentPacketToLowerLayer:sum(packetBytes) 0
attr interpolationmode none
attr source sentPacketToLowerLayer
scalar MultiCell.ue22.cellularNic.rlc.um sentPacketToUpperLayer:count 323
attr interpolationmode none
attr source sentPacketToUpperLayer
scalar MultiCell.ue22.cellularNic.rlc.um sentPacketToUpperLayer:sum(packetBytes) 22287
attr interpolationmode none
attr source sentPacketToUpperLayer
scalar MultiCell.ue22.cellularNic.rlc.um receivedPacketFromLowerLayer:count 323
attr interpolationmode none
attr source receivedPacketFromLowerLayer
scalar MultiCell.ue22.cellularNic.rlc.um receivedPacketFromLowerLayer:sum(packetBytes) 22933
attr interpolationmode none
attr source receivedPacketFromLowerLayer
scalar MultiCell.ue22.cellularNic.rlc.um receivedPacketFromUpperLayer:count 0
attr interpolationmode none
attr source receivedPacketFromUpperLayer
scalar MultiCell.ue22.cellularNic.rlc.um receivedPacketFromUpperLayer:sum(packetBytes) 0
attr interpolationmode none
attr source receivedPacketFromUpperLayer
par MultiCell.ue22.cellularNic.rlc.am typename "\"simu5g.stack.rlc.LteRlcAm\""
scalar MultiCell.ue22.cellularNic.rlc.am rlcPduPacketLossDl:mean -nan
attr source rlcPduPacketLossDl
attr title "rlc Packet Loss, mean"
attr unit ""
scalar MultiCell.ue22.cellularNic.rlc.am rlcPduPacketLossUl:mean -nan
attr source rlcPduPacketLossUl
attr title "rlc Packet Loss, mean"
attr unit ""
scalar MultiCell.ue22.cellularNic.rlc.am rlcPduThroughputUl:mean -nan
attr source rlcPduThroughputUl
attr title "Throughput at the rlc layer UL, mean"
attr unit Bps
scalar MultiCell.ue22.cellularNic.rlc.am rlcPduDelayUl:mean -nan
attr source rlcPduDelayUl
attr title "Delay at the rlc layer UL, mean"
attr unit s
scalar MultiCell.ue22.cellularNic.rlc.am rlcPduThroughputDl:mean -nan
attr source rlcPduThroughputDl
attr title "Throughput at the rlc layer DL, mean"
attr unit Bps
scalar MultiCell.ue22.cellularNic.rlc.am rlcPduDelayDl:mean -nan
attr source rlcPduDelayDl
attr title "Delay at the rlc layer UL, mean"
attr unit s
scalar MultiCell.ue22.cellularNic.rlc.am rlcCellPacketLossUl:mean -nan
attr source rlcCellPacketLossUl
attr title "rlc Cell Packet Loss, mean"
attr unit ""
scalar MultiCell.ue22.cellularNic.rlc.am rlcCellPacketLossDl:mean -nan
attr source rlcCellPacketLossDl
attr title "rlc Cell Packet Loss, mean"
attr unit ""
scalar MultiCell.ue22.cellularNic.rlc.am rlcCellThroughputDl:mean -nan
attr source rlcCellThroughputDl
attr title "Cell Throughput at the rlc layer DL, mean"
attr unit Bps
scalar MultiCell.ue22.cellularNic.rlc.am rlcCellThroughputUl:mean -nan
attr source rlcCellThroughputUl
attr title "Cell Throughput at the rlc layer UL, mean"
attr unit Bps
scalar MultiCell.ue22.cellularNic.rlc.am rlcPacketLossTotal:mean -nan
attr source rlcPacketLossTotal
attr title "rlc Packet Loss, mean"
attr unit ""
scalar MultiCell.ue22.cellularNic.rlc.am rlcThroughputUl:mean -nan
attr source rlcThroughputUl
attr title "Throughput at the rlc layer UL, mean"
attr unit Bps
scalar MultiCell.ue22.cellularNic.rlc.am rlcDelayUl:mean -nan
attr source rlcDelayUl
attr title "Delay at the rlc layer UL, mean"
attr unit s
scalar MultiCell.ue22.cellularNic.rlc.am rlcThroughputDl:mean -nan
attr source rlcThroughputDl
attr title "Throughput at the rlc layer DL, mean"
attr unit Bps
scalar MultiCell.ue22.cellularNic.rlc.am rlcDelayDl:mean -nan
attr source rlcDelayDl
attr title "Delay at the rlc layer UL, mean"
attr unit s
scalar MultiCell.ue22.cellularNic.rlc.am rlcPacketLossDl:mean -nan
attr source rlcPacketLossDl
attr title "rlc Packet Loss, mean"
attr unit ""
scalar MultiCell.ue22.cellularNic.rlc.am rlcPacketLossUl:mean -nan
attr source rlcPacketLossUl
attr title "rlc Packet Loss, mean"
attr unit ""
par MultiCell.ue22.cellularNic.rlc.mux typename "\"simu5g.stack.rlc.LteRlcMux\""
par "MultiCell.ue22.cellularNic.rlc.UmRxEntity Lcid: 2" typename "\"simu5g.stack.rlc.UmRxEntity\""
par "MultiCell.ue22.cellularNic.rlc.UmRxEntity Lcid: 2" timeout 1s
attr unit s
par "MultiCell.ue22.cellularNic.rlc.UmRxEntity Lcid: 2" rxWindowSize 16
par MultiCell.ue22.cellularNic.rlc typename "\"simu5g.stack.rlc.LteRlc\""
par MultiCell.ue22.cellularNic.rlc LteRlcUmType "\"LteRlcUm\""
par MultiCell.ue22.cellularNic.rlc d2dCapable false
par MultiCell.ue22.cellularNic.rlc umType "\"LteRlcUm\""
par MultiCell.ue22.cellularNic.mac typename "\"simu5g.stack.mac.LteMacUe\""
par MultiCell.ue22.cellularNic.mac interfaceTableModule "\"MultiCell.ue22.interfaceTable\""
par MultiCell.ue22.cellularNic.mac queueSize 2097152B
attr unit B
par MultiCell.ue22.cellularNic.mac muMimo true
par MultiCell.ue22.cellularNic.mac harqProcesses 8
par MultiCell.ue22.cellularNic.mac maxHarqRtx 3
par MultiCell.ue22.cellularNic.mac harqFbEvaluationTimer 4
par MultiCell.ue22.cellularNic.mac statDisplay false
scalar MultiCell.ue22.cellularNic.mac measuredItbs:mean -nan
attr source measuredItbs
attr title "TBS index, mean"
attr unit ""
scalar MultiCell.ue22.cellularNic.mac harqErrorRate_4th_Dl:mean -nan
attr source harqErrorRate_4th_Dl
attr title "Harq Error Rate Dl, mean"
attr unit ""
scalar MultiCell.ue22.cellularNic.mac harqErrorRate_4th_Ul:mean -nan
attr source harqErrorRate_4th_Ul
attr title "Harq Error Rate Ul, mean"
attr unit ""
scalar MultiCell.ue22.cellularNic.mac harqErrorRate_3rd_Dl:mean -nan
attr source harqErrorRate_3rd_Dl
attr title "Harq Error Rate Dl, mean"
attr unit ""
scalar MultiCell.ue22.cellularNic.mac harqErrorRate_3rd_Ul:mean -nan
attr source harqErrorRate_3rd_Ul
attr title "Harq Error Rate Ul, mean"
attr unit ""
scalar MultiCell.ue22.cellularNic.mac harqErrorRate_2nd_Dl:mean -nan
attr source harqErrorRate_2nd_Dl
attr title "Harq Error Rate Dl, mean"
attr unit ""
scalar MultiCell.ue22.cellularNic.mac harqErrorRate_2nd_Ul:mean -nan
attr source harqErrorRate_2nd_Ul
attr title "Harq Error Rate Ul, mean"
attr unit ""
scalar MultiCell.ue22.cellularNic.mac harqErrorRate_1st_Dl:mean 0
attr source harqErrorRate_1st_Dl
attr title "Harq Error Rate Dl, mean"
attr unit ""
scalar MultiCell.ue22.cellularNic.mac harqErrorRate_1st_Ul:mean -nan
attr source harqErrorRate_1st_Ul
attr title "Harq Error Rate Ul, mean"
attr unit ""
scalar MultiCell.ue22.cellularNic.mac harqTxAttemptsUl:mean -nan
attr source harqTxAttemptsUl
attr title "Harq Tx Attempts Ul, mean"
attr unit ""
scalar MultiCell.ue22.cellularNic.mac harqTxAttemptsDl:mean 1
attr source harqTxAttemptsDl
attr title "Harq Tx Attempts Dl, mean"
attr unit ""
scalar MultiCell.ue22.cellularNic.mac harqErrorRateDl:mean 0
attr source harqErrorRateDl
attr title "Harq Error Rate Dl, mean"
attr unit ""
scalar MultiCell.ue22.cellularNic.mac harqErrorRateUl:mean -nan
attr source harqErrorRateUl
attr title "Harq Error Rate Ul, mean"
attr unit ""
scalar MultiCell.ue22.cellularNic.mac macBufferOverFlowD2D:mean -nan
attr source macBufferOverFlowD2D
attr title "Mac buffer overflow as function of time, mean"
attr unit Byte/s
scalar MultiCell.ue22.cellularNic.mac macBufferOverFlowUl:mean -nan
attr source macBufferOverFlowUl
attr title "Mac buffer overflow as function of time, mean"
attr unit Byte/s
scalar MultiCell.ue22.cellularNic.mac macBufferOverFlowDl:mean -nan
attr source macBufferOverFlowDl
attr title "Mac buffer overflow as function of time, mean"
attr unit Byte/s
scalar MultiCell.ue22.cellularNic.mac macPacketLossDl:mean 0
attr source macPacketLossDl
attr title "Mac Packet Loss Dl, mean"
attr unit ""
scalar MultiCell.ue22.cellularNic.mac macPacketLossUl:mean -nan
attr source macPacketLossUl
attr title "Mac Packet Loss Ul, mean"
attr unit ""
scalar MultiCell.ue22.cellularNic.mac macCellPacketLossUl:mean -nan
attr source macCellPacketLossUl
attr title "Mac Cell Packet Loss Ul, mean"
attr unit ""
scalar MultiCell.ue22.cellularNic.mac macCellPacketLossDl:mean -nan
attr source macCellPacketLossDl
attr title "Mac Cell Packet Loss Dl, mean"
attr unit ""
scalar MultiCell.ue22.cellularNic.mac macCellThroughputDl:mean -nan
attr source macCellThroughputDl
attr title "Cell Throughput at the MAC layer DL, mean"
attr unit Bps
scalar MultiCell.ue22.cellularNic.mac macCellThroughputUl:mean -nan
attr source macCellThroughputUl
attr title "Cell Throughput at the MAC layer UL, mean"
attr unit Bps
scalar MultiCell.ue22.cellularNic.mac macThroughputUl:mean -nan
attr source macThroughputUl
attr title "Throughput at the MAC layer UL, mean"
attr unit Bps
scalar MultiCell.ue22.cellularNic.mac macDelayUl:mean -nan
attr source macDelayUl
attr title "Delay at the MAC layer UL, mean"
attr unit s
scalar MultiCell.ue22.cellularNic.mac macThroughputDl:mean 3311.3265031429
attr source macThroughputDl
attr title "Throughput at the MAC layer DL, mean"
attr unit Bps
scalar MultiCell.ue22.cellularNic.mac macDelayDl:mean -nan
attr source macDelayDl
attr title "Delay at the MAC layer UL, mean"
attr unit s
scalar MultiCell.ue22.cellularNic.mac sentPacketToLowerLayer:count 323
attr interpolationmode none
attr source sentPacketToLowerLayer
scalar MultiCell.ue22.cellularNic.mac sentPacketToLowerLayer:sum(packetBytes) 323
attr interpolationmode none
attr source sentPacketToLowerLayer
scalar MultiCell.ue22.cellularNic.mac sentPacketToUpperLayer:count 323
attr interpolationmode none
attr source sentPacketToUpperLayer
scalar MultiCell.ue22.cellularNic.mac sentPacketToUpperLayer:sum(packetBytes) 22933
attr interpolationmode none
attr source sentPacketToUpperLayer
scalar MultiCell.ue22.cellularNic.mac receivedPacketFromLowerLayer:count 323
attr interpolationmode none
attr source receivedPacketFromLowerLayer
scalar MultiCell.ue22.cellularNic.mac receivedPacketFromLowerLayer:sum(packetBytes) 23579
attr interpolationmode none
attr source receivedPacketFromLowerLayer
scalar MultiCell.ue22.cellularNic.mac receivedPacketFromUpperLayer:count 0
attr interpolationmode none
attr source receivedPacketFromUpperLayer
scalar MultiCell.ue22.cellularNic.mac receivedPacketFromUpperLayer:sum(packetBytes) 0
attr interpolationmode none
attr source receivedPacketFromUpperLayer
par MultiCell.ue22.cellularNic.phy typename "\"simu5g.stack.phy.LtePhyUe\""
par MultiCell.ue22.cellularNic.phy ueTxPower 26
par MultiCell.ue22.cellularNic.phy eNodeBTxPower 40
par MultiCell.ue22.cellularNic.phy microTxPower 30
par MultiCell.ue22.cellularNic.phy txDirection "\"OMNI\""
par MultiCell.ue22.cellularNic.phy txAngle 0
par MultiCell.ue22.cellularNic.phy dynamicCellAssociation false
par MultiCell.ue22.cellularNic.phy enableHandover false
par MultiCell.ue22.cellularNic.phy handoverLatency 0.05s
attr unit s
par MultiCell.ue22.cellularNic.phy enableMulticastD2DRangeCheck false
par MultiCell.ue22.cellularNic.phy multicastD2DRange 1000m
attr unit m
par MultiCell.ue22.cellularNic.phy minRssiDefault true
par MultiCell.ue22.cellularNic.phy minRssi -99dB
attr unit dB
scalar MultiCell.ue22.cellularNic.phy averageCqiUl:mean -nan
attr source averageCqiUl
attr title "Average Cqi reported in UL, mean"
attr unit cqi
scalar MultiCell.ue22.cellularNic.phy averageCqiUl:count 0
attr source averageCqiUl
attr title "Average Cqi reported in UL, count"
attr unit cqi
scalar MultiCell.ue22.cellularNic.phy averageCqiDl:mean 15
attr source averageCqiDl
attr title "Average Cqi reported in DL, mean"
attr unit cqi
scalar MultiCell.ue22.cellularNic.phy averageCqiDl:count 323
attr source averageCqiDl
attr title "Average Cqi reported in DL, count"
attr unit cqi
par MultiCell.ue22.cellularNic.channelModel[0] typename "\"simu5g.stack.phy.ChannelModel.LteRealisticChannelModel\""
par MultiCell.ue22.cellularNic.channelModel[0] componentCarrierIndex 0
par MultiCell.ue22.cellularNic.channelModel[0] shadowing true
par MultiCell.ue22.cellularNic.channelModel[0] scenario "\"URBAN_MACROCELL\""
par MultiCell.ue22.cellularNic.channelModel[0] nodeb_height 25
par MultiCell.ue22.cellularNic.channelModel[0] building_height 20
par MultiCell.ue22.cellularNic.channelModel[0] inside_building false
par MultiCell.ue22.cellularNic.channelModel[0] street_wide 20
par MultiCell.ue22.cellularNic.channelModel[0] ue_height 1.5
par MultiCell.ue22.cellularNic.channelModel[0] tolerateMaxDistViolation false
par MultiCell.ue22.cellularNic.channelModel[0] useTorus false
par MultiCell.ue22.cellularNic.channelModel[0] correlation_distance 50
par MultiCell.ue22.cellularNic.channelModel[0] targetBler 0.01
par MultiCell.ue22.cellularNic.channelModel[0] harqReduction 0.2
par MultiCell.ue22.cellularNic.channelModel[0] lambdaMinTh 0.02
par MultiCell.ue22.cellularNic.channelModel[0] lambdaMaxTh 0.2
par MultiCell.ue22.cellularNic.channelModel[0] lambdaRatioTh 20
par MultiCell.ue22.cellularNic.channelModel[0] antennaGainUe 0
par MultiCell.ue22.cellularNic.channelModel[0] antennGainEnB 18
par MultiCell.ue22.cellularNic.channelModel[0] antennGainMicro 5
par MultiCell.ue22.cellularNic.channelModel[0] thermalNoise -104.5
par MultiCell.ue22.cellularNic.channelModel[0] ue_noise_figure 7
par MultiCell.ue22.cellularNic.channelModel[0] bs_noise_figure 5
par MultiCell.ue22.cellularNic.channelModel[0] cable_loss 2
par MultiCell.ue22.cellularNic.channelModel[0] dynamic_los false
par MultiCell.ue22.cellularNic.channelModel[0] fixed_los false
par MultiCell.ue22.cellularNic.channelModel[0] fading true
par MultiCell.ue22.cellularNic.channelModel[0] fading_type "\"JAKES\""
par MultiCell.ue22.cellularNic.channelModel[0] fading_paths 6
par MultiCell.ue22.cellularNic.channelModel[0] delay_rms 3.63e-07
par MultiCell.ue22.cellularNic.channelModel[0] bgCell_interference true
par MultiCell.ue22.cellularNic.channelModel[0] extCell_interference true
par MultiCell.ue22.cellularNic.channelModel[0] downlink_interference true
par MultiCell.ue22.cellularNic.channelModel[0] uplink_interference false
par MultiCell.ue22.cellularNic.channelModel[0] d2d_interference true
par MultiCell.ue22.cellularNic.channelModel[0] enable_extCell_los true
par MultiCell.ue22.cellularNic.channelModel[0] useRsrqFromLog false
par MultiCell.ue22.cellularNic.channelModel[0] rsrqShift 22
par MultiCell.ue22.cellularNic.channelModel[0] rsrqScale 1
par MultiCell.ue22.cellularNic.channelModel[0] collectSinrStatistics true
scalar MultiCell.ue22.cellularNic.channelModel[0] distance:mean 126.17844506888
attr source distance
attr title "distance between UE and serving base station, mean"
attr unit meters
scalar MultiCell.ue22.cellularNic.channelModel[0] measuredSinrUl:mean 46.767345840954
attr source measuredSinrUl
attr title "SINR measured at feedback computation, UL, mean"
attr unit dB
scalar MultiCell.ue22.cellularNic.channelModel[0] measuredSinrDl:mean 43.629054993251
attr source measuredSinrDl
attr title "SINR measured at feedback computation, DL, mean"
attr unit dB
scalar MultiCell.ue22.cellularNic.channelModel[0] rcvdSinrUl:mean -nan
attr source rcvdSinrUl
attr title "SINR measured at packet reception, UL, mean"
attr unit dB
scalar MultiCell.ue22.cellularNic.channelModel[0] rcvdSinrDl:mean 38.960934398168
attr source rcvdSinrDl
attr title "SINR measured at packet reception, DL, mean"
attr unit dB
par MultiCell.ue22.cellularNic.dlFbGen typename "\"simu5g.stack.phy.feedback.LteDlFeedbackGenerator\""
par MultiCell.ue22.cellularNic.dlFbGen feedbackType "\"ALLBANDS\""
par MultiCell.ue22.cellularNic.dlFbGen rbAllocationType "\"localized\""
par MultiCell.ue22.cellularNic.dlFbGen fbPeriod 6
par MultiCell.ue22.cellularNic.dlFbGen fbDelay 1
par MultiCell.ue22.cellularNic.dlFbGen usePeriodic true
par MultiCell.ue22.cellularNic.dlFbGen initialTxMode "\"SINGLE_ANTENNA_PORT0\""
par MultiCell.ue22.cellularNic.dlFbGen feedbackGeneratorType "\"IDEAL\""
par MultiCell.ue22.cellularNic typename "\"simu5g.stack.LteNicUe\""
par MultiCell.ue22.cellularNic displayStringTextFormat "\"%a (%i)\\n%m\""
par MultiCell.ue22.cellularNic recordPcap false
par MultiCell.ue22.cellularNic numPcapRecorders 0
par MultiCell.ue22.cellularNic interfaceTableModule "\"MultiCell.ue22.interfaceTable\""
par MultiCell.ue22.cellularNic routingTableModule "\"^.ipv4.routingTable\""
par MultiCell.ue22.cellularNic LtePdcpRrcType "\"LtePdcpRrcUe\""
par MultiCell.ue22.cellularNic LteMacType "\"LteMacUe\""
par MultiCell.ue22.cellularNic PacketFlowManagerType "\"PacketFlowManagerUe\""
par MultiCell.ue22.cellularNic hasRNISupport false
par MultiCell.ue22.cellularNic LtePhyType "\"LtePhyUe\""
par MultiCell.ue22.cellularNic nodeType "\"UE\""
par MultiCell.ue22.cellularNic processingDelayIn 0s
attr unit s
par MultiCell.ue22.cellularNic processingDelayOut 0s
attr unit s
par MultiCell.ue22.cellularNic LteChannelModelType "\"LteRealisticChannelModel\""
par MultiCell.ue22.cellularNic d2dCapable false
par MultiCell.ue22.cellularNic dualConnectivityEnabled false
par MultiCell.ue22.cellularNic numCarriers 1
par MultiCell.ue22.cellularNic address "\"0A-AA-00-00-00-06\""
par MultiCell.ue22.at typename "\"inet.common.MessageDispatcher\""
par MultiCell.ue22.at displayStringTextFormat "\"processed %p pk (%l)\""
par MultiCell.ue22.tn typename "\"inet.common.MessageDispatcher\""
par MultiCell.ue22.tn displayStringTextFormat "\"processed %p pk (%l)\""
par MultiCell.ue22.nl typename "\"inet.common.MessageDispatcher\""
par MultiCell.ue22.nl displayStringTextFormat "\"processed %p pk (%l)\""
par MultiCell.ue22 typename "\"simu5g.nodes.Ue\""
par MultiCell.ue22 mobilityType "\"StationaryMobility\""
par MultiCell.ue22 numApps 1
par MultiCell.ue22 hasUdp true
par MultiCell.ue22 hasTcp true
par MultiCell.ue22 hasSctp false
par MultiCell.ue22 nodeType "\"UE\""
par MultiCell.ue22 masterId 2
par MultiCell.ue22 macNodeId 1028
par MultiCell.ue22 macCellId 2
par MultiCell.ue22 nicType "\"LteNicUe\""
par MultiCell.ue22 hasIpv4 true
par MultiCell.ue22 hasIpv6 false
par MultiCell.ue22 numEthInterfaces 0
par MultiCell.ue22 extHostAddress "\"\""
par MultiCell.ue22 numLoInterfaces 1
par MultiCell.ue22 numPcapRecorders 0
par MultiCell.ue22 hasRNISupport false
par MultiCell typename "\"miesimulazioni.simulations.MultiCell.MultiCell\""

