version 3
run MultihopD2D-0-20220413-00:42:42-213719
attr configname MultihopD2D
attr datetime 20220413-00:42:42
attr datetimef 20220413-004242
attr experiment MultihopD2D
attr inifile omnetpp.ini
attr iterationvars ""
attr iterationvarsd ""
attr iterationvarsf ""
attr measurement ""
attr network simu5g.simulations.networks.MultiCell_D2DMultihop
attr processid 213719
attr repetition 0
attr replication #0
attr resultdir results
attr runnumber 0
attr seedset 0
config image-path ../../images:../../../inet4.3/images:../../../veins_inet/images:../../../veins/images
config network simu5g.simulations.networks.MultiCell_D2DMultihop
config *.ue*[*].cellularNic.phy.ueTxPower 30
config *.ue*[*].cellularNic.phy.d2dTxPower 15
config *.eNodeB*.mobility.initFromDisplayString true
config *.numUe* 1
config *.ue1[*].macCellId 1
config *.ue1[*].masterId 1
config *.ue2[*].macCellId 2
config *.ue2[*].masterId 2
config *.ue3[*].macCellId 3
config *.ue3[*].masterId 3
config *.ue4[*].macCellId 4
config *.ue4[*].masterId 4
config *.ue5[*].macCellId 5
config *.ue5[*].masterId 5
config *.ue*[*].mobility.initFromDisplayString false
config *.ue*[*].mobility.initialY uniform(410m,420m)
config *.ue1[*].mobility.initialX uniform(0m,400m)
config *.ue2[*].mobility.initialX uniform(400m,800m)
config *.ue3[*].mobility.initialX uniform(800m,1200m)
config *.ue4[*].mobility.initialX uniform(1200m,1600m)
config *.ue5[*].mobility.initialX uniform(1600m,2000m)
config *.ue*[*].mobilityType "\"LinearMobility\""
config *.ue*[*].mobility.speed 0.1mps
config *.eNodeB*.nicType "\"LteNicEnbD2D\""
config *.ue*[*].nicType "\"LteNicUeD2D\""
config **.amcMode "\"D2D\""
config **.usePreconfiguredTxParams true
config **.d2dCqi 10
config *.ue*[*].numApps 1
config *.ue*[*].app[0].typename MultihopD2D
config *.ue*[*].app[0].destAddress "\"224.0.0.10\""
config *.ue*[*].app[0].ttl 10
config *.ue*[*].app[0].msgSize 14
config *.ue*[*].app[0].maxBroadcastRadius 1000m
config debug-on-errors false
config sim-time-limit 50s
config warmup-period 5s
config repeat 3
config **.routingRecorder.enabled false
config output-scalar-file results/MultihopD2D/0.sca
config output-vector-file results/MultihopD2D/0.vec
config seed-set 0
config **.vector-recording false
config **.mobility.constraintAreaMinZ 0m
config **.mobility.constraintAreaMaxZ 0m
config **.numBands 50
config **.fbPeriod 500
config *.configurator.config "xmldoc(\"./demo.xml\")"

par MultiCell_D2DMultihop.router1.pppg$o[0].channel typename "\"inet.node.ethernet.Eth10G\""
par MultiCell_D2DMultihop.router1.pppg$o[0].channel disabled false
par MultiCell_D2DMultihop.router1.pppg$o[0].channel delay 5e-08s
attr unit s
par MultiCell_D2DMultihop.router1.pppg$o[0].channel datarate 1e+10bps
attr unit bps
par MultiCell_D2DMultihop.router1.pppg$o[0].channel ber 0
par MultiCell_D2DMultihop.router1.pppg$o[0].channel per 0
par MultiCell_D2DMultihop.router1.pppg$o[0].channel length 10m
attr unit m
par MultiCell_D2DMultihop.eNodeB1.ppp$o.channel typename "\"inet.node.ethernet.Eth10G\""
par MultiCell_D2DMultihop.eNodeB1.ppp$o.channel disabled false
par MultiCell_D2DMultihop.eNodeB1.ppp$o.channel delay 5e-08s
attr unit s
par MultiCell_D2DMultihop.eNodeB1.ppp$o.channel datarate 1e+10bps
attr unit bps
par MultiCell_D2DMultihop.eNodeB1.ppp$o.channel ber 0
par MultiCell_D2DMultihop.eNodeB1.ppp$o.channel per 0
par MultiCell_D2DMultihop.eNodeB1.ppp$o.channel length 10m
attr unit m
par MultiCell_D2DMultihop.router2.pppg$o[0].channel typename "\"inet.node.ethernet.Eth10G\""
par MultiCell_D2DMultihop.router2.pppg$o[0].channel disabled false
par MultiCell_D2DMultihop.router2.pppg$o[0].channel delay 5e-08s
attr unit s
par MultiCell_D2DMultihop.router2.pppg$o[0].channel datarate 1e+10bps
attr unit bps
par MultiCell_D2DMultihop.router2.pppg$o[0].channel ber 0
par MultiCell_D2DMultihop.router2.pppg$o[0].channel per 0
par MultiCell_D2DMultihop.router2.pppg$o[0].channel length 10m
attr unit m
par MultiCell_D2DMultihop.eNodeB2.ppp$o.channel typename "\"inet.node.ethernet.Eth10G\""
par MultiCell_D2DMultihop.eNodeB2.ppp$o.channel disabled false
par MultiCell_D2DMultihop.eNodeB2.ppp$o.channel delay 5e-08s
attr unit s
par MultiCell_D2DMultihop.eNodeB2.ppp$o.channel datarate 1e+10bps
attr unit bps
par MultiCell_D2DMultihop.eNodeB2.ppp$o.channel ber 0
par MultiCell_D2DMultihop.eNodeB2.ppp$o.channel per 0
par MultiCell_D2DMultihop.eNodeB2.ppp$o.channel length 10m
attr unit m
par MultiCell_D2DMultihop.router3.pppg$o[0].channel typename "\"inet.node.ethernet.Eth10G\""
par MultiCell_D2DMultihop.router3.pppg$o[0].channel disabled false
par MultiCell_D2DMultihop.router3.pppg$o[0].channel delay 5e-08s
attr unit s
par MultiCell_D2DMultihop.router3.pppg$o[0].channel datarate 1e+10bps
attr unit bps
par MultiCell_D2DMultihop.router3.pppg$o[0].channel ber 0
par MultiCell_D2DMultihop.router3.pppg$o[0].channel per 0
par MultiCell_D2DMultihop.router3.pppg$o[0].channel length 10m
attr unit m
par MultiCell_D2DMultihop.eNodeB3.ppp$o.channel typename "\"inet.node.ethernet.Eth10G\""
par MultiCell_D2DMultihop.eNodeB3.ppp$o.channel disabled false
par MultiCell_D2DMultihop.eNodeB3.ppp$o.channel delay 5e-08s
attr unit s
par MultiCell_D2DMultihop.eNodeB3.ppp$o.channel datarate 1e+10bps
attr unit bps
par MultiCell_D2DMultihop.eNodeB3.ppp$o.channel ber 0
par MultiCell_D2DMultihop.eNodeB3.ppp$o.channel per 0
par MultiCell_D2DMultihop.eNodeB3.ppp$o.channel length 10m
attr unit m
par MultiCell_D2DMultihop.router4.pppg$o[0].channel typename "\"inet.node.ethernet.Eth10G\""
par MultiCell_D2DMultihop.router4.pppg$o[0].channel disabled false
par MultiCell_D2DMultihop.router4.pppg$o[0].channel delay 5e-08s
attr unit s
par MultiCell_D2DMultihop.router4.pppg$o[0].channel datarate 1e+10bps
attr unit bps
par MultiCell_D2DMultihop.router4.pppg$o[0].channel ber 0
par MultiCell_D2DMultihop.router4.pppg$o[0].channel per 0
par MultiCell_D2DMultihop.router4.pppg$o[0].channel length 10m
attr unit m
par MultiCell_D2DMultihop.eNodeB4.ppp$o.channel typename "\"inet.node.ethernet.Eth10G\""
par MultiCell_D2DMultihop.eNodeB4.ppp$o.channel disabled false
par MultiCell_D2DMultihop.eNodeB4.ppp$o.channel delay 5e-08s
attr unit s
par MultiCell_D2DMultihop.eNodeB4.ppp$o.channel datarate 1e+10bps
attr unit bps
par MultiCell_D2DMultihop.eNodeB4.ppp$o.channel ber 0
par MultiCell_D2DMultihop.eNodeB4.ppp$o.channel per 0
par MultiCell_D2DMultihop.eNodeB4.ppp$o.channel length 10m
attr unit m
par MultiCell_D2DMultihop.router5.pppg$o[0].channel typename "\"inet.node.ethernet.Eth10G\""
par MultiCell_D2DMultihop.router5.pppg$o[0].channel disabled false
par MultiCell_D2DMultihop.router5.pppg$o[0].channel delay 5e-08s
attr unit s
par MultiCell_D2DMultihop.router5.pppg$o[0].channel datarate 1e+10bps
attr unit bps
par MultiCell_D2DMultihop.router5.pppg$o[0].channel ber 0
par MultiCell_D2DMultihop.router5.pppg$o[0].channel per 0
par MultiCell_D2DMultihop.router5.pppg$o[0].channel length 10m
attr unit m
par MultiCell_D2DMultihop.eNodeB5.ppp$o.channel typename "\"inet.node.ethernet.Eth10G\""
par MultiCell_D2DMultihop.eNodeB5.ppp$o.channel disabled false
par MultiCell_D2DMultihop.eNodeB5.ppp$o.channel delay 5e-08s
attr unit s
par MultiCell_D2DMultihop.eNodeB5.ppp$o.channel datarate 1e+10bps
attr unit bps
par MultiCell_D2DMultihop.eNodeB5.ppp$o.channel ber 0
par MultiCell_D2DMultihop.eNodeB5.ppp$o.channel per 0
par MultiCell_D2DMultihop.eNodeB5.ppp$o.channel length 10m
attr unit m
par MultiCell_D2DMultihop.router1.pppg$o[1].channel typename "\"inet.node.ethernet.Eth10G\""
par MultiCell_D2DMultihop.router1.pppg$o[1].channel disabled false
par MultiCell_D2DMultihop.router1.pppg$o[1].channel delay 5e-08s
attr unit s
par MultiCell_D2DMultihop.router1.pppg$o[1].channel datarate 1e+10bps
attr unit bps
par MultiCell_D2DMultihop.router1.pppg$o[1].channel ber 0
par MultiCell_D2DMultihop.router1.pppg$o[1].channel per 0
par MultiCell_D2DMultihop.router1.pppg$o[1].channel length 10m
attr unit m
par MultiCell_D2DMultihop.pgw.pppg$o[0].channel typename "\"inet.node.ethernet.Eth10G\""
par MultiCell_D2DMultihop.pgw.pppg$o[0].channel disabled false
par MultiCell_D2DMultihop.pgw.pppg$o[0].channel delay 5e-08s
attr unit s
par MultiCell_D2DMultihop.pgw.pppg$o[0].channel datarate 1e+10bps
attr unit bps
par MultiCell_D2DMultihop.pgw.pppg$o[0].channel ber 0
par MultiCell_D2DMultihop.pgw.pppg$o[0].channel per 0
par MultiCell_D2DMultihop.pgw.pppg$o[0].channel length 10m
attr unit m
par MultiCell_D2DMultihop.router2.pppg$o[1].channel typename "\"inet.node.ethernet.Eth10G\""
par MultiCell_D2DMultihop.router2.pppg$o[1].channel disabled false
par MultiCell_D2DMultihop.router2.pppg$o[1].channel delay 5e-08s
attr unit s
par MultiCell_D2DMultihop.router2.pppg$o[1].channel datarate 1e+10bps
attr unit bps
par MultiCell_D2DMultihop.router2.pppg$o[1].channel ber 0
par MultiCell_D2DMultihop.router2.pppg$o[1].channel per 0
par MultiCell_D2DMultihop.router2.pppg$o[1].channel length 10m
attr unit m
par MultiCell_D2DMultihop.pgw.pppg$o[1].channel typename "\"inet.node.ethernet.Eth10G\""
par MultiCell_D2DMultihop.pgw.pppg$o[1].channel disabled false
par MultiCell_D2DMultihop.pgw.pppg$o[1].channel delay 5e-08s
attr unit s
par MultiCell_D2DMultihop.pgw.pppg$o[1].channel datarate 1e+10bps
attr unit bps
par MultiCell_D2DMultihop.pgw.pppg$o[1].channel ber 0
par MultiCell_D2DMultihop.pgw.pppg$o[1].channel per 0
par MultiCell_D2DMultihop.pgw.pppg$o[1].channel length 10m
attr unit m
par MultiCell_D2DMultihop.router3.pppg$o[1].channel typename "\"inet.node.ethernet.Eth10G\""
par MultiCell_D2DMultihop.router3.pppg$o[1].channel disabled false
par MultiCell_D2DMultihop.router3.pppg$o[1].channel delay 5e-08s
attr unit s
par MultiCell_D2DMultihop.router3.pppg$o[1].channel datarate 1e+10bps
attr unit bps
par MultiCell_D2DMultihop.router3.pppg$o[1].channel ber 0
par MultiCell_D2DMultihop.router3.pppg$o[1].channel per 0
par MultiCell_D2DMultihop.router3.pppg$o[1].channel length 10m
attr unit m
par MultiCell_D2DMultihop.pgw.pppg$o[2].channel typename "\"inet.node.ethernet.Eth10G\""
par MultiCell_D2DMultihop.pgw.pppg$o[2].channel disabled false
par MultiCell_D2DMultihop.pgw.pppg$o[2].channel delay 5e-08s
attr unit s
par MultiCell_D2DMultihop.pgw.pppg$o[2].channel datarate 1e+10bps
attr unit bps
par MultiCell_D2DMultihop.pgw.pppg$o[2].channel ber 0
par MultiCell_D2DMultihop.pgw.pppg$o[2].channel per 0
par MultiCell_D2DMultihop.pgw.pppg$o[2].channel length 10m
attr unit m
par MultiCell_D2DMultihop.router4.pppg$o[1].channel typename "\"inet.node.ethernet.Eth10G\""
par MultiCell_D2DMultihop.router4.pppg$o[1].channel disabled false
par MultiCell_D2DMultihop.router4.pppg$o[1].channel delay 5e-08s
attr unit s
par MultiCell_D2DMultihop.router4.pppg$o[1].channel datarate 1e+10bps
attr unit bps
par MultiCell_D2DMultihop.router4.pppg$o[1].channel ber 0
par MultiCell_D2DMultihop.router4.pppg$o[1].channel per 0
par MultiCell_D2DMultihop.router4.pppg$o[1].channel length 10m
attr unit m
par MultiCell_D2DMultihop.pgw.pppg$o[3].channel typename "\"inet.node.ethernet.Eth10G\""
par MultiCell_D2DMultihop.pgw.pppg$o[3].channel disabled false
par MultiCell_D2DMultihop.pgw.pppg$o[3].channel delay 5e-08s
attr unit s
par MultiCell_D2DMultihop.pgw.pppg$o[3].channel datarate 1e+10bps
attr unit bps
par MultiCell_D2DMultihop.pgw.pppg$o[3].channel ber 0
par MultiCell_D2DMultihop.pgw.pppg$o[3].channel per 0
par MultiCell_D2DMultihop.pgw.pppg$o[3].channel length 10m
attr unit m
par MultiCell_D2DMultihop.router5.pppg$o[1].channel typename "\"inet.node.ethernet.Eth10G\""
par MultiCell_D2DMultihop.router5.pppg$o[1].channel disabled false
par MultiCell_D2DMultihop.router5.pppg$o[1].channel delay 5e-08s
attr unit s
par MultiCell_D2DMultihop.router5.pppg$o[1].channel datarate 1e+10bps
attr unit bps
par MultiCell_D2DMultihop.router5.pppg$o[1].channel ber 0
par MultiCell_D2DMultihop.router5.pppg$o[1].channel per 0
par MultiCell_D2DMultihop.router5.pppg$o[1].channel length 10m
attr unit m
par MultiCell_D2DMultihop.pgw.pppg$o[4].channel typename "\"inet.node.ethernet.Eth10G\""
par MultiCell_D2DMultihop.pgw.pppg$o[4].channel disabled false
par MultiCell_D2DMultihop.pgw.pppg$o[4].channel delay 5e-08s
attr unit s
par MultiCell_D2DMultihop.pgw.pppg$o[4].channel datarate 1e+10bps
attr unit bps
par MultiCell_D2DMultihop.pgw.pppg$o[4].channel ber 0
par MultiCell_D2DMultihop.pgw.pppg$o[4].channel per 0
par MultiCell_D2DMultihop.pgw.pppg$o[4].channel length 10m
attr unit m
par MultiCell_D2DMultihop.router.pppg$o[0].channel typename "\"inet.node.ethernet.Eth10G\""
par MultiCell_D2DMultihop.router.pppg$o[0].channel disabled false
par MultiCell_D2DMultihop.router.pppg$o[0].channel delay 5e-08s
attr unit s
par MultiCell_D2DMultihop.router.pppg$o[0].channel datarate 1e+10bps
attr unit bps
par MultiCell_D2DMultihop.router.pppg$o[0].channel ber 0
par MultiCell_D2DMultihop.router.pppg$o[0].channel per 0
par MultiCell_D2DMultihop.router.pppg$o[0].channel length 10m
attr unit m
par MultiCell_D2DMultihop.pgw.filterGate$o.channel typename "\"inet.node.ethernet.Eth10G\""
par MultiCell_D2DMultihop.pgw.filterGate$o.channel disabled false
par MultiCell_D2DMultihop.pgw.filterGate$o.channel delay 5e-08s
attr unit s
par MultiCell_D2DMultihop.pgw.filterGate$o.channel datarate 1e+10bps
attr unit bps
par MultiCell_D2DMultihop.pgw.filterGate$o.channel ber 0
par MultiCell_D2DMultihop.pgw.filterGate$o.channel per 0
par MultiCell_D2DMultihop.pgw.filterGate$o.channel length 10m
attr unit m
par MultiCell_D2DMultihop.server.pppg$o[0].channel typename "\"inet.node.ethernet.Eth10G\""
par MultiCell_D2DMultihop.server.pppg$o[0].channel disabled false
par MultiCell_D2DMultihop.server.pppg$o[0].channel delay 5e-08s
attr unit s
par MultiCell_D2DMultihop.server.pppg$o[0].channel datarate 1e+10bps
attr unit bps
par MultiCell_D2DMultihop.server.pppg$o[0].channel ber 0
par MultiCell_D2DMultihop.server.pppg$o[0].channel per 0
par MultiCell_D2DMultihop.server.pppg$o[0].channel length 10m
attr unit m
par MultiCell_D2DMultihop.router.pppg$o[1].channel typename "\"inet.node.ethernet.Eth10G\""
par MultiCell_D2DMultihop.router.pppg$o[1].channel disabled false
par MultiCell_D2DMultihop.router.pppg$o[1].channel delay 5e-08s
attr unit s
par MultiCell_D2DMultihop.router.pppg$o[1].channel datarate 1e+10bps
attr unit bps
par MultiCell_D2DMultihop.router.pppg$o[1].channel ber 0
par MultiCell_D2DMultihop.router.pppg$o[1].channel per 0
par MultiCell_D2DMultihop.router.pppg$o[1].channel length 10m
attr unit m
par MultiCell_D2DMultihop.channelControl typename "\"simu5g.world.radio.LteChannelControl\""
par MultiCell_D2DMultihop.channelControl coreDebug false
par MultiCell_D2DMultihop.channelControl pMax 20mW
attr unit mW
par MultiCell_D2DMultihop.channelControl sat -110dBm
attr unit dBm
par MultiCell_D2DMultihop.channelControl alpha 2
par MultiCell_D2DMultihop.channelControl carrierFrequency 2.4e+09Hz
attr unit Hz
par MultiCell_D2DMultihop.channelControl numChannels 1
par MultiCell_D2DMultihop.channelControl propagationModel "\"FreeSpaceModel\""
attr enum FreeSpaceModel,TwoRayGroundModel,RiceModel,RayleighModel,NakagamiModel,LogNormalShadowingModel
par MultiCell_D2DMultihop.routingRecorder typename "\"inet.networklayer.ipv4.RoutingTableRecorder\""
par MultiCell_D2DMultihop.routingRecorder enabled false
par MultiCell_D2DMultihop.configurator typename "\"inet.networklayer.configurator.ipv4.Ipv4NetworkConfigurator\""
par MultiCell_D2DMultihop.configurator minLinkWeight 0.001
par MultiCell_D2DMultihop.configurator configureIsolatedNetworksSeparatly false
par MultiCell_D2DMultihop.configurator config "<config>...</config> at /home/simu5g/simu5g-workspace/simu5G/simulations/d2d_multihop/demo.xml:1"
par MultiCell_D2DMultihop.configurator assignAddresses true
par MultiCell_D2DMultihop.configurator assignUniqueAddresses true
par MultiCell_D2DMultihop.configurator assignDisjunctSubnetAddresses true
par MultiCell_D2DMultihop.configurator addStaticRoutes true
par MultiCell_D2DMultihop.configurator addDefaultRoutes true
par MultiCell_D2DMultihop.configurator addSubnetRoutes true
par MultiCell_D2DMultihop.configurator addDirectRoutes true
par MultiCell_D2DMultihop.configurator optimizeRoutes true
par MultiCell_D2DMultihop.configurator dumpTopology false
par MultiCell_D2DMultihop.configurator dumpLinks false
par MultiCell_D2DMultihop.configurator dumpAddresses false
par MultiCell_D2DMultihop.configurator dumpRoutes false
par MultiCell_D2DMultihop.configurator dumpConfig "\"\""
par MultiCell_D2DMultihop.binder typename "\"simu5g.common.binder.Binder\""
par MultiCell_D2DMultihop.binder blerShift 0
par MultiCell_D2DMultihop.binder maxDataRatePerRb 1.16Mbps
attr unit Mbps
par MultiCell_D2DMultihop.binder printTrafficGeneratorConfig false
par MultiCell_D2DMultihop.carrierAggregation.componentCarrier[0] typename "\"simu5g.common.carrierAggregation.ComponentCarrier\""
par MultiCell_D2DMultihop.carrierAggregation.componentCarrier[0] carrierFrequency 2GHz
attr unit GHz
par MultiCell_D2DMultihop.carrierAggregation.componentCarrier[0] numBands 50
par MultiCell_D2DMultihop.carrierAggregation.componentCarrier[0] numerologyIndex 0
par MultiCell_D2DMultihop.carrierAggregation.componentCarrier[0] useTdd false
par MultiCell_D2DMultihop.carrierAggregation.componentCarrier[0] tddNumSymbolsDl 7
par MultiCell_D2DMultihop.carrierAggregation.componentCarrier[0] tddNumSymbolsUl 7
par MultiCell_D2DMultihop.carrierAggregation typename "\"simu5g.common.carrierAggregation.CarrierAggregation\""
par MultiCell_D2DMultihop.carrierAggregation numComponentCarriers 1
par MultiCell_D2DMultihop.server.pppg$i[0].channel typename "\"ned.IdealChannel\""
par MultiCell_D2DMultihop.server.ppp[0].phys$o.channel typename "\"ned.IdealChannel\""
par MultiCell_D2DMultihop.server.interfaceTable typename "\"inet.networklayer.common.InterfaceTable\""
par MultiCell_D2DMultihop.server.interfaceTable displayAddresses false
par MultiCell_D2DMultihop.server.li typename "\"inet.common.MessageDispatcher\""
par MultiCell_D2DMultihop.server.li displayStringTextFormat "\"processed %p pk (%l)\""
par MultiCell_D2DMultihop.server.lo[0].upperLayerIn.channel typename "\"ned.IdealChannel\""
par MultiCell_D2DMultihop.server.lo[0].lo.upperLayerOut.channel typename "\"ned.IdealChannel\""
par MultiCell_D2DMultihop.server.lo[0].lo typename "\"inet.linklayer.loopback.Loopback\""
par MultiCell_D2DMultihop.server.lo[0].lo interfaceTableModule "\"MultiCell_D2DMultihop.server.interfaceTable\""
par MultiCell_D2DMultihop.server.lo[0].lo mtu 4470B
attr unit B
scalar MultiCell_D2DMultihop.server.lo[0].lo rcvdPkFromHl:count 0
attr interpolationmode none
attr source packetReceivedFromUpper
attr title "packets received from higher layer, count"
scalar MultiCell_D2DMultihop.server.lo[0].lo rcvdPkFromHl:sum(packetBytes) 0
attr interpolationmode none
attr source packetReceivedFromUpper
attr title "packets received from higher layer, sum(packetBytes)"
scalar MultiCell_D2DMultihop.server.lo[0].lo passedUpPk:count 0
attr interpolationmode none
attr source packetSentToUpper
attr title "packets passed to higher layer, count"
scalar MultiCell_D2DMultihop.server.lo[0].lo passedUpPk:sum(packetBytes) 0
attr interpolationmode none
attr source packetSentToUpper
attr title "packets passed to higher layer, sum(packetBytes)"
par MultiCell_D2DMultihop.server.lo[0] typename "\"inet.linklayer.loopback.LoopbackInterface\""
par MultiCell_D2DMultihop.server.lo[0] displayStringTextFormat "\"%a (%i)\\n%m\""
par MultiCell_D2DMultihop.server.lo[0] recordPcap false
par MultiCell_D2DMultihop.server.lo[0] numPcapRecorders 0
par MultiCell_D2DMultihop.server.lo[0] interfaceTableModule "\"MultiCell_D2DMultihop.server.interfaceTable\""
par MultiCell_D2DMultihop.server.ppp[0].upperLayerIn.channel typename "\"ned.IdealChannel\""
par MultiCell_D2DMultihop.server.ppp[0].phys$i.channel typename "\"ned.IdealChannel\""
par MultiCell_D2DMultihop.server.ppp[0].ppp.phys$o.channel typename "\"ned.IdealChannel\""
par MultiCell_D2DMultihop.server.ppp[0].ppp.upperLayerOut.channel typename "\"ned.IdealChannel\""
par MultiCell_D2DMultihop.server.ppp[0].ppp.queue typename "\"inet.queueing.queue.DropTailQueue\""
par MultiCell_D2DMultihop.server.ppp[0].ppp.queue displayStringTextFormat "\"contains %p pk (%l) pushed %u\\npulled %o removed %r dropped %d\""
par MultiCell_D2DMultihop.server.ppp[0].ppp.queue packetCapacity 10000
par MultiCell_D2DMultihop.server.ppp[0].ppp.queue dataCapacity -1b
attr unit b
par MultiCell_D2DMultihop.server.ppp[0].ppp.queue dropperClass "\"inet::queueing::PacketAtCollectionEndDropper\""
par MultiCell_D2DMultihop.server.ppp[0].ppp.queue comparatorClass "\"\""
par MultiCell_D2DMultihop.server.ppp[0].ppp.queue bufferModule "\"\""
scalar MultiCell_D2DMultihop.server.ppp[0].ppp.queue packetPulled:count 0
attr interpolationmode none
attr title "packet pulled, count"
scalar MultiCell_D2DMultihop.server.ppp[0].ppp.queue packetPulled:sum(packetBytes) 0
attr interpolationmode none
attr title "packet pulled, sum(packetBytes)"
statistic MultiCell_D2DMultihop.server.ppp[0].ppp.queue queueingTime:histogram
field count 0
field mean -nan
field stddev nan
field min nan
field max nan
field sum 0
field sqrsum 0
attr interpolationmode none
attr source queueingTime(packetPulled)
attr title "queueing times, histogram"
attr unit s
bin	-inf	0
bin	0	0
bin	1	0
scalar MultiCell_D2DMultihop.server.ppp[0].ppp.queue queueLength:max nan
attr autoWarmupFilter false
attr interpolationmode sample-hold
attr source "warmup(count(packetPushed) - count(packetPulled) - count(packetRemoved) - count(packetDropped))"
attr title "queue length, max"
attr type int
scalar MultiCell_D2DMultihop.server.ppp[0].ppp.queue queueLength:timeavg -nan
attr autoWarmupFilter false
attr interpolationmode sample-hold
attr source "warmup(count(packetPushed) - count(packetPulled) - count(packetRemoved) - count(packetDropped))"
attr title "queue length, timeavg"
attr type int
scalar MultiCell_D2DMultihop.server.ppp[0].ppp.queue packetPushed:count 0
attr interpolationmode none
attr title "packet pushed, count"
scalar MultiCell_D2DMultihop.server.ppp[0].ppp.queue packetPushed:sum(packetBytes) 0
attr interpolationmode none
attr title "packet pushed, sum(packetBytes)"
scalar MultiCell_D2DMultihop.server.ppp[0].ppp.queue packetDropQueueOverflow:count 0
attr interpolationmode none
attr source packetDropReasonIsQueueOverflow(packetDropped)
attr title "packet drops: queue overflow, count"
scalar MultiCell_D2DMultihop.server.ppp[0].ppp.queue packetDropQueueOverflow:sum(packetBytes) 0
attr interpolationmode none
attr source packetDropReasonIsQueueOverflow(packetDropped)
attr title "packet drops: queue overflow, sum(packetBytes)"
scalar MultiCell_D2DMultihop.server.ppp[0].ppp.queue packetRemoved:count 0
attr interpolationmode none
attr title "packets removed, count"
scalar MultiCell_D2DMultihop.server.ppp[0].ppp.queue packetRemoved:sum(packetBytes) 0
attr interpolationmode none
attr title "packets removed, sum(packetBytes)"
par MultiCell_D2DMultihop.server.ppp[0].ppp typename "\"inet.linklayer.ppp.Ppp\""
par MultiCell_D2DMultihop.server.ppp[0].ppp interfaceTableModule "\"MultiCell_D2DMultihop.server.interfaceTable\""
par MultiCell_D2DMultihop.server.ppp[0].ppp displayStringTextFormat "\"rate: %b\\nsent: %s, rcvd: %r\\nqueue: %q, drop: %d\""
par MultiCell_D2DMultihop.server.ppp[0].ppp sendRawBytes false
par MultiCell_D2DMultihop.server.ppp[0].ppp mtu 4470B
attr unit B
par MultiCell_D2DMultihop.server.ppp[0].ppp stopOperationExtraTime -1s
attr unit s
par MultiCell_D2DMultihop.server.ppp[0].ppp stopOperationTimeout 2s
attr unit s
scalar MultiCell_D2DMultihop.server.ppp[0].ppp transmissionState:timeavg -nan
attr interpolationmode sample-hold
attr source transmissionStateChanged
attr title "tx state, timeavg"
scalar MultiCell_D2DMultihop.server.ppp[0].ppp rxPkOk:count 0
attr interpolationmode none
attr source rxPkOk
attr title "packets received OK, count"
scalar MultiCell_D2DMultihop.server.ppp[0].ppp rxPkOk:sum(packetBytes) 0
attr interpolationmode none
attr source rxPkOk
attr title "packets received OK, sum(packetBytes)"
scalar MultiCell_D2DMultihop.server.ppp[0].ppp txPk:count 0
attr interpolationmode none
attr source packetSentToLower
attr title "packets transmitted, count"
scalar MultiCell_D2DMultihop.server.ppp[0].ppp txPk:sum(packetBytes) 0
attr interpolationmode none
attr source packetSentToLower
attr title "packets transmitted, sum(packetBytes)"
scalar MultiCell_D2DMultihop.server.ppp[0].ppp rcvdPkFromHl:count 0
attr interpolationmode none
attr source packetReceivedFromUpper
attr title "packets received from higher layer, count"
scalar MultiCell_D2DMultihop.server.ppp[0].ppp rcvdPkFromHl:sum(packetBytes) 0
attr interpolationmode none
attr source packetReceivedFromUpper
attr title "packets received from higher layer, sum(packetBytes)"
scalar MultiCell_D2DMultihop.server.ppp[0].ppp passedUpPk:count 0
attr interpolationmode none
attr source packetSentToUpper
attr title "packets passed to higher layer, count"
scalar MultiCell_D2DMultihop.server.ppp[0].ppp passedUpPk:sum(packetBytes) 0
attr interpolationmode none
attr source packetSentToUpper
attr title "packets passed to higher layer, sum(packetBytes)"
scalar MultiCell_D2DMultihop.server.ppp[0].ppp packetDropIncorrectlyReceived:count 0
attr interpolationmode none
attr source packetDropReasonIsIncorrectlyReceived(packetDropped)
attr title "packet drop: incorrectly received, count"
scalar MultiCell_D2DMultihop.server.ppp[0].ppp packetDropIncorrectlyReceived:sum(packetBytes) 0
attr interpolationmode none
attr source packetDropReasonIsIncorrectlyReceived(packetDropped)
attr title "packet drop: incorrectly received, sum(packetBytes)"
scalar MultiCell_D2DMultihop.server.ppp[0].ppp packetDropInterfaceDown:count 0
attr interpolationmode none
attr source packetDropReasonIsInterfaceDown(packetDropped)
attr title "packet drop: interface down, count"
scalar MultiCell_D2DMultihop.server.ppp[0].ppp packetDropInterfaceDown:sum(packetBytes) 0
attr interpolationmode none
attr source packetDropReasonIsInterfaceDown(packetDropped)
attr title "packet drop: interface down, sum(packetBytes)"
par MultiCell_D2DMultihop.server.ppp[0] typename "\"inet.linklayer.ppp.PppInterface\""
par MultiCell_D2DMultihop.server.ppp[0] displayStringTextFormat "\"%a (%i)\\n%m\""
par MultiCell_D2DMultihop.server.ppp[0] recordPcap false
par MultiCell_D2DMultihop.server.ppp[0] numPcapRecorders 0
par MultiCell_D2DMultihop.server.ppp[0] interfaceTableModule "\"MultiCell_D2DMultihop.server.interfaceTable\""
par MultiCell_D2DMultihop.server.ipv4.transportIn.channel typename "\"ned.IdealChannel\""
par MultiCell_D2DMultihop.server.ipv4.up.out[0].channel typename "\"ned.IdealChannel\""
par MultiCell_D2DMultihop.server.ipv4.lp.out[2].channel typename "\"ned.IdealChannel\""
par MultiCell_D2DMultihop.server.ipv4.ifIn.channel typename "\"ned.IdealChannel\""
par MultiCell_D2DMultihop.server.ipv4.configurator typename "\"inet.networklayer.configurator.ipv4.Ipv4NodeConfigurator\""
par MultiCell_D2DMultihop.server.ipv4.configurator interfaceTableModule "\"MultiCell_D2DMultihop.server.interfaceTable\""
par MultiCell_D2DMultihop.server.ipv4.configurator routingTableModule "\"MultiCell_D2DMultihop.server.ipv4.routingTable\""
par MultiCell_D2DMultihop.server.ipv4.configurator networkConfiguratorModule "\"configurator\""
par MultiCell_D2DMultihop.server.ipv4.configurator configureRoutingTable true
par MultiCell_D2DMultihop.server.ipv4.routingTable typename "\"inet.networklayer.ipv4.Ipv4RoutingTable\""
par MultiCell_D2DMultihop.server.ipv4.routingTable interfaceTableModule "\"MultiCell_D2DMultihop.server.interfaceTable\""
par MultiCell_D2DMultihop.server.ipv4.routingTable routerId "\"auto\""
par MultiCell_D2DMultihop.server.ipv4.routingTable netmaskRoutes "\"*\""
par MultiCell_D2DMultihop.server.ipv4.routingTable forwarding false
par MultiCell_D2DMultihop.server.ipv4.routingTable multicastForwarding false
par MultiCell_D2DMultihop.server.ipv4.routingTable useAdminDist false
par MultiCell_D2DMultihop.server.ipv4.routingTable routingFile "\"\""
par MultiCell_D2DMultihop.server.ipv4.natTable typename "\"inet.networklayer.ipv4.Ipv4NatTable\""
par MultiCell_D2DMultihop.server.ipv4.natTable networkProtocolModule "\"^.ip\""
par MultiCell_D2DMultihop.server.ipv4.natTable config "<config/> at content:1"
par MultiCell_D2DMultihop.server.ipv4.up typename "\"inet.common.MessageDispatcher\""
par MultiCell_D2DMultihop.server.ipv4.up displayStringTextFormat "\"processed %p pk (%l)\""
par MultiCell_D2DMultihop.server.ipv4.igmp typename "\"inet.networklayer.ipv4.Igmpv2\""
par MultiCell_D2DMultihop.server.ipv4.igmp interfaceTableModule "\"MultiCell_D2DMultihop.server.interfaceTable\""
par MultiCell_D2DMultihop.server.ipv4.igmp routingTableModule "\"MultiCell_D2DMultihop.server.ipv4.routingTable\""
par MultiCell_D2DMultihop.server.ipv4.igmp crcMode "\"declared\""
attr enum declared,computed
par MultiCell_D2DMultihop.server.ipv4.igmp enabled true
par MultiCell_D2DMultihop.server.ipv4.igmp robustnessVariable 2
par MultiCell_D2DMultihop.server.ipv4.igmp queryInterval 125s
attr unit s
par MultiCell_D2DMultihop.server.ipv4.igmp queryResponseInterval 10s
attr unit s
par MultiCell_D2DMultihop.server.ipv4.igmp groupMembershipInterval 260s
attr unit s
par MultiCell_D2DMultihop.server.ipv4.igmp otherQuerierPresentInterval 255s
attr unit s
par MultiCell_D2DMultihop.server.ipv4.igmp startupQueryInterval 31.25s
attr unit s
par MultiCell_D2DMultihop.server.ipv4.igmp startupQueryCount 2
par MultiCell_D2DMultihop.server.ipv4.igmp lastMemberQueryInterval 1s
attr unit s
par MultiCell_D2DMultihop.server.ipv4.igmp lastMemberQueryCount 2
par MultiCell_D2DMultihop.server.ipv4.igmp unsolicitedReportInterval 10s
attr unit s
par MultiCell_D2DMultihop.server.ipv4.icmp typename "\"inet.networklayer.ipv4.Icmp\""
par MultiCell_D2DMultihop.server.ipv4.icmp interfaceTableModule "\"MultiCell_D2DMultihop.server.interfaceTable\""
par MultiCell_D2DMultihop.server.ipv4.icmp routingTableModule "\"MultiCell_D2DMultihop.server.ipv4.routingTable\""
par MultiCell_D2DMultihop.server.ipv4.icmp crcMode "\"declared\""
attr enum declared,computed
par MultiCell_D2DMultihop.server.ipv4.icmp quoteLength 8B
attr unit B
par MultiCell_D2DMultihop.server.ipv4.mp typename "\"inet.common.MessageDispatcher\""
par MultiCell_D2DMultihop.server.ipv4.mp displayStringTextFormat "\"processed %p pk (%l)\""
par MultiCell_D2DMultihop.server.ipv4.ip typename "\"inet.networklayer.ipv4.Ipv4\""
par MultiCell_D2DMultihop.server.ipv4.ip interfaceTableModule "\"MultiCell_D2DMultihop.server.interfaceTable\""
par MultiCell_D2DMultihop.server.ipv4.ip routingTableModule "\"MultiCell_D2DMultihop.server.ipv4.routingTable\""
par MultiCell_D2DMultihop.server.ipv4.ip arpModule "\"MultiCell_D2DMultihop.server.ipv4.arp\""
par MultiCell_D2DMultihop.server.ipv4.ip icmpModule "\"MultiCell_D2DMultihop.server.ipv4.icmp\""
par MultiCell_D2DMultihop.server.ipv4.ip crcMode "\"declared\""
attr enum declared,computed
par MultiCell_D2DMultihop.server.ipv4.ip timeToLive 32
par MultiCell_D2DMultihop.server.ipv4.ip multicastTimeToLive 32
par MultiCell_D2DMultihop.server.ipv4.ip fragmentTimeout 60s
attr unit s
par MultiCell_D2DMultihop.server.ipv4.ip limitedBroadcast false
par MultiCell_D2DMultihop.server.ipv4.ip directBroadcastInterfaces "\"\""
scalar MultiCell_D2DMultihop.server.ipv4.ip packetDropAddressResolutionFailed:count 0
attr interpolationmode none
attr source packetDropReasonIsAddressResolutionFailed(packetDropped)
attr title "packet drop: address resolution failed, count"
scalar MultiCell_D2DMultihop.server.ipv4.ip packetDropAddressResolutionFailed:sum(packetBytes) 0
attr interpolationmode none
attr source packetDropReasonIsAddressResolutionFailed(packetDropped)
attr title "packet drop: address resolution failed, sum(packetBytes)"
scalar MultiCell_D2DMultihop.server.ipv4.ip packetDropHopLimitReached:count 0
attr interpolationmode none
attr source packetDropReasonIsHopLimitReached(packetDropped)
attr title "packet drop: hop limit reached, count"
scalar MultiCell_D2DMultihop.server.ipv4.ip packetDropHopLimitReached:sum(packetBytes) 0
attr interpolationmode none
attr source packetDropReasonIsHopLimitReached(packetDropped)
attr title "packet drop: hop limit reached, sum(packetBytes)"
scalar MultiCell_D2DMultihop.server.ipv4.ip packetDropForwardingDisabled:count 0
attr interpolationmode none
attr source packetDropReasonIsForwardingDisabled(packetDropped)
attr title "packet drop: forwarding disabled, count"
scalar MultiCell_D2DMultihop.server.ipv4.ip packetDropForwardingDisabled:sum(packetBytes) 0
attr interpolationmode none
attr source packetDropReasonIsForwardingDisabled(packetDropped)
attr title "packet drop: forwarding disabled, sum(packetBytes)"
scalar MultiCell_D2DMultihop.server.ipv4.ip packetDropNoInterfaceFound:count 0
attr interpolationmode none
attr source packetDropReasonIsNoInterfaceFound(packetDropped)
attr title "packet drop: no interface found, count"
scalar MultiCell_D2DMultihop.server.ipv4.ip packetDropNoInterfaceFound:sum(packetBytes) 0
attr interpolationmode none
attr source packetDropReasonIsNoInterfaceFound(packetDropped)
attr title "packet drop: no interface found, sum(packetBytes)"
scalar MultiCell_D2DMultihop.server.ipv4.ip packetDropNoRouteFound:count 0
attr interpolationmode none
attr source packetDropReasonIsNoRouteFound(packetDropped)
attr title "packet drop: no route found, count"
scalar MultiCell_D2DMultihop.server.ipv4.ip packetDropNoRouteFound:sum(packetBytes) 0
attr interpolationmode none
attr source packetDropReasonIsNoRouteFound(packetDropped)
attr title "packet drop: no route found, sum(packetBytes)"
scalar MultiCell_D2DMultihop.server.ipv4.ip packetDropUndefined:count 0
attr interpolationmode none
attr source packetDropReasonIsUndefined(packetDropped)
attr title "packet drop: undefined, count"
scalar MultiCell_D2DMultihop.server.ipv4.ip packetDropUndefined:sum(packetBytes) 0
attr interpolationmode none
attr source packetDropReasonIsUndefined(packetDropped)
attr title "packet drop: undefined, sum(packetBytes)"
par MultiCell_D2DMultihop.server.ipv4.arp typename "\"inet.networklayer.arp.ipv4.Arp\""
par MultiCell_D2DMultihop.server.ipv4.arp interfaceTableModule "\"MultiCell_D2DMultihop.server.interfaceTable\""
par MultiCell_D2DMultihop.server.ipv4.arp routingTableModule "\"MultiCell_D2DMultihop.server.ipv4.routingTable\""
par MultiCell_D2DMultihop.server.ipv4.arp retryTimeout 1s
attr unit s
par MultiCell_D2DMultihop.server.ipv4.arp retryCount 3
par MultiCell_D2DMultihop.server.ipv4.arp cacheTimeout 120s
attr unit s
par MultiCell_D2DMultihop.server.ipv4.arp proxyArpInterfaces "\"\""
scalar MultiCell_D2DMultihop.server.ipv4.arp arpResolutionFailed:count 0
attr title "ARP failed resolutions, count"
scalar MultiCell_D2DMultihop.server.ipv4.arp arpResolutionCompleted:count 0
attr title "ARP completed resolutions, count"
scalar MultiCell_D2DMultihop.server.ipv4.arp arpResolutionInitiated:count 0
attr title "ARP initiated resolutions, count"
scalar MultiCell_D2DMultihop.server.ipv4.arp arpReplySent:count 0
attr source arpReplySent
attr title "ARP replies sent, count"
scalar MultiCell_D2DMultihop.server.ipv4.arp arpReplySent:sum(packetBytes) 0
attr source arpReplySent
attr title "ARP replies sent, sum(packetBytes)"
scalar MultiCell_D2DMultihop.server.ipv4.arp arpRequestSent:count 0
attr source arpRequestSent
attr title "ARP request sent, count"
scalar MultiCell_D2DMultihop.server.ipv4.arp arpRequestSent:sum(packetBytes) 0
attr source arpRequestSent
attr title "ARP request sent, sum(packetBytes)"
par MultiCell_D2DMultihop.server.ipv4.lp typename "\"inet.common.MessageDispatcher\""
par MultiCell_D2DMultihop.server.ipv4.lp displayStringTextFormat "\"processed %p pk (%l)\""
par MultiCell_D2DMultihop.server.ipv4 typename "\"inet.networklayer.ipv4.Ipv4NetworkLayer\""
par MultiCell_D2DMultihop.server.ipv4 forwarding false
par MultiCell_D2DMultihop.server.ipv4 multicastForwarding false
par MultiCell_D2DMultihop.server.ipv4 interfaceTableModule "\"MultiCell_D2DMultihop.server.interfaceTable\""
par MultiCell_D2DMultihop.server.ipv4 displayStringTextFormat "\"%i\""
par MultiCell_D2DMultihop.server.nl typename "\"inet.common.MessageDispatcher\""
par MultiCell_D2DMultihop.server.nl displayStringTextFormat "\"processed %p pk (%l)\""
par MultiCell_D2DMultihop.server.udp typename "\"inet.transportlayer.udp.Udp\""
par MultiCell_D2DMultihop.server.udp interfaceTableModule "\"MultiCell_D2DMultihop.server.interfaceTable\""
par MultiCell_D2DMultihop.server.udp icmpModule "\"^.ipv4.icmp\""
par MultiCell_D2DMultihop.server.udp icmpv6Module "\"^.ipv6.icmpv6\""
par MultiCell_D2DMultihop.server.udp crcMode "\"declared\""
attr enum disabled,declared,computed
scalar MultiCell_D2DMultihop.server.udp packetReceived:count 0
attr interpolationmode none
attr source packetReceived
attr title "packets received, count"
scalar MultiCell_D2DMultihop.server.udp packetReceived:sum(packetBytes) 0
attr interpolationmode none
attr source packetReceived
attr title "packets received, sum(packetBytes)"
scalar MultiCell_D2DMultihop.server.udp packetSent:count 0
attr interpolationmode none
attr source packetSent
attr title "packets sent, count"
scalar MultiCell_D2DMultihop.server.udp packetSent:sum(packetBytes) 0
attr interpolationmode none
attr source packetSent
attr title "packets sent, sum(packetBytes)"
scalar MultiCell_D2DMultihop.server.udp passedUpPk:count 0
attr interpolationmode none
attr source packetSentToUpper
attr title "packets passed up, count"
scalar MultiCell_D2DMultihop.server.udp droppedPkWrongPort:count 0
attr interpolationmode none
attr source packetDropReasonIsNoPortFound(packetDropped)
attr title "packets dropped (wrong port), count"
scalar MultiCell_D2DMultihop.server.udp droppedPkBadChecksum:count 0
attr interpolationmode none
attr source packetDropReasonIsIncorrectlyReceived(packetDropped)
attr title "packets dropped (checksum error), count"
par MultiCell_D2DMultihop.server.tcp typename "\"inet.transportlayer.tcp.Tcp\""
par MultiCell_D2DMultihop.server.tcp crcMode "\"declared\""
attr enum declared,computed
par MultiCell_D2DMultihop.server.tcp advertisedWindow 7504
par MultiCell_D2DMultihop.server.tcp delayedAcksEnabled false
par MultiCell_D2DMultihop.server.tcp nagleEnabled true
par MultiCell_D2DMultihop.server.tcp limitedTransmitEnabled false
par MultiCell_D2DMultihop.server.tcp increasedIWEnabled false
par MultiCell_D2DMultihop.server.tcp sackSupport false
par MultiCell_D2DMultihop.server.tcp windowScalingSupport false
par MultiCell_D2DMultihop.server.tcp windowScalingFactor -1
par MultiCell_D2DMultihop.server.tcp timestampSupport false
par MultiCell_D2DMultihop.server.tcp mss 536
par MultiCell_D2DMultihop.server.tcp msl 120s
attr unit s
par MultiCell_D2DMultihop.server.tcp tcpAlgorithmClass "\"TcpReno\""
attr enum TcpVegas,TcpWestwood,TcpNewReno,TcpReno,TcpTahoe,TcpNoCongestionControl
par MultiCell_D2DMultihop.server.tcp useDataNotification false
par MultiCell_D2DMultihop.server.tcp dupthresh 3
par MultiCell_D2DMultihop.server.tcp initialSsthresh 4294967295
par MultiCell_D2DMultihop.server.tcp stopOperationExtraTime 0s
attr unit s
par MultiCell_D2DMultihop.server.tcp stopOperationTimeout 2s
attr unit s
par MultiCell_D2DMultihop.server.tcp ecnWillingness false
par MultiCell_D2DMultihop.server.tcp dctcpGamma 0.0625
par MultiCell_D2DMultihop.server.tn typename "\"inet.common.MessageDispatcher\""
par MultiCell_D2DMultihop.server.tn displayStringTextFormat "\"processed %p pk (%l)\""
par MultiCell_D2DMultihop.server.at typename "\"inet.common.MessageDispatcher\""
par MultiCell_D2DMultihop.server.at displayStringTextFormat "\"processed %p pk (%l)\""
par MultiCell_D2DMultihop.server typename "\"inet.node.inet.StandardHost\""
par MultiCell_D2DMultihop.server hasStatus false
par MultiCell_D2DMultihop.server osgModel "\"\""
par MultiCell_D2DMultihop.server osgModelColor "\"\""
par MultiCell_D2DMultihop.server canvasImage "\"\""
par MultiCell_D2DMultihop.server canvasImageColor "\"\""
par MultiCell_D2DMultihop.server recordPcap false
par MultiCell_D2DMultihop.server numPcapRecorders 0
par MultiCell_D2DMultihop.server numLoInterfaces 1
par MultiCell_D2DMultihop.server numWlanInterfaces 0
par MultiCell_D2DMultihop.server numEthInterfaces 0
par MultiCell_D2DMultihop.server numPppInterfaces 0
par MultiCell_D2DMultihop.server numTunInterfaces 0
par MultiCell_D2DMultihop.server numVirtInterfaces 0
par MultiCell_D2DMultihop.server hasIpv4 true
par MultiCell_D2DMultihop.server hasIpv6 false
par MultiCell_D2DMultihop.server hasGn false
par MultiCell_D2DMultihop.server forwarding false
par MultiCell_D2DMultihop.server multicastForwarding false
par MultiCell_D2DMultihop.server hasUdp true
par MultiCell_D2DMultihop.server hasTcp true
par MultiCell_D2DMultihop.server hasSctp false
par MultiCell_D2DMultihop.server numApps 0
par MultiCell_D2DMultihop.router.pppg$i[0].channel typename "\"ned.IdealChannel\""
par MultiCell_D2DMultihop.router.ppp[0].phys$o.channel typename "\"ned.IdealChannel\""
par MultiCell_D2DMultihop.router.pppg$i[1].channel typename "\"ned.IdealChannel\""
par MultiCell_D2DMultihop.router.ppp[1].phys$o.channel typename "\"ned.IdealChannel\""
par MultiCell_D2DMultihop.router.interfaceTable typename "\"inet.networklayer.common.InterfaceTable\""
par MultiCell_D2DMultihop.router.interfaceTable displayAddresses false
par MultiCell_D2DMultihop.router.li typename "\"inet.common.MessageDispatcher\""
par MultiCell_D2DMultihop.router.li displayStringTextFormat "\"processed %p pk (%l)\""
par MultiCell_D2DMultihop.router.lo[0].upperLayerIn.channel typename "\"ned.IdealChannel\""
par MultiCell_D2DMultihop.router.lo[0].lo.upperLayerOut.channel typename "\"ned.IdealChannel\""
par MultiCell_D2DMultihop.router.lo[0].lo typename "\"inet.linklayer.loopback.Loopback\""
par MultiCell_D2DMultihop.router.lo[0].lo interfaceTableModule "\"MultiCell_D2DMultihop.router.interfaceTable\""
par MultiCell_D2DMultihop.router.lo[0].lo mtu 4470B
attr unit B
scalar MultiCell_D2DMultihop.router.lo[0].lo rcvdPkFromHl:count 0
attr interpolationmode none
attr source packetReceivedFromUpper
attr title "packets received from higher layer, count"
scalar MultiCell_D2DMultihop.router.lo[0].lo rcvdPkFromHl:sum(packetBytes) 0
attr interpolationmode none
attr source packetReceivedFromUpper
attr title "packets received from higher layer, sum(packetBytes)"
scalar MultiCell_D2DMultihop.router.lo[0].lo passedUpPk:count 0
attr interpolationmode none
attr source packetSentToUpper
attr title "packets passed to higher layer, count"
scalar MultiCell_D2DMultihop.router.lo[0].lo passedUpPk:sum(packetBytes) 0
attr interpolationmode none
attr source packetSentToUpper
attr title "packets passed to higher layer, sum(packetBytes)"
par MultiCell_D2DMultihop.router.lo[0] typename "\"inet.linklayer.loopback.LoopbackInterface\""
par MultiCell_D2DMultihop.router.lo[0] displayStringTextFormat "\"%a (%i)\\n%m\""
par MultiCell_D2DMultihop.router.lo[0] recordPcap false
par MultiCell_D2DMultihop.router.lo[0] numPcapRecorders 0
par MultiCell_D2DMultihop.router.lo[0] interfaceTableModule "\"MultiCell_D2DMultihop.router.interfaceTable\""
par MultiCell_D2DMultihop.router.ppp[0].upperLayerIn.channel typename "\"ned.IdealChannel\""
par MultiCell_D2DMultihop.router.ppp[0].phys$i.channel typename "\"ned.IdealChannel\""
par MultiCell_D2DMultihop.router.ppp[0].ppp.phys$o.channel typename "\"ned.IdealChannel\""
par MultiCell_D2DMultihop.router.ppp[0].ppp.upperLayerOut.channel typename "\"ned.IdealChannel\""
par MultiCell_D2DMultihop.router.ppp[0].ppp.queue typename "\"inet.queueing.queue.DropTailQueue\""
par MultiCell_D2DMultihop.router.ppp[0].ppp.queue displayStringTextFormat "\"contains %p pk (%l) pushed %u\\npulled %o removed %r dropped %d\""
par MultiCell_D2DMultihop.router.ppp[0].ppp.queue packetCapacity 10000
par MultiCell_D2DMultihop.router.ppp[0].ppp.queue dataCapacity -1b
attr unit b
par MultiCell_D2DMultihop.router.ppp[0].ppp.queue dropperClass "\"inet::queueing::PacketAtCollectionEndDropper\""
par MultiCell_D2DMultihop.router.ppp[0].ppp.queue comparatorClass "\"\""
par MultiCell_D2DMultihop.router.ppp[0].ppp.queue bufferModule "\"\""
scalar MultiCell_D2DMultihop.router.ppp[0].ppp.queue packetPulled:count 0
attr interpolationmode none
attr title "packet pulled, count"
scalar MultiCell_D2DMultihop.router.ppp[0].ppp.queue packetPulled:sum(packetBytes) 0
attr interpolationmode none
attr title "packet pulled, sum(packetBytes)"
statistic MultiCell_D2DMultihop.router.ppp[0].ppp.queue queueingTime:histogram
field count 0
field mean -nan
field stddev nan
field min nan
field max nan
field sum 0
field sqrsum 0
attr interpolationmode none
attr source queueingTime(packetPulled)
attr title "queueing times, histogram"
attr unit s
bin	-inf	0
bin	0	0
bin	1	0
scalar MultiCell_D2DMultihop.router.ppp[0].ppp.queue queueLength:max nan
attr autoWarmupFilter false
attr interpolationmode sample-hold
attr source "warmup(count(packetPushed) - count(packetPulled) - count(packetRemoved) - count(packetDropped))"
attr title "queue length, max"
attr type int
scalar MultiCell_D2DMultihop.router.ppp[0].ppp.queue queueLength:timeavg -nan
attr autoWarmupFilter false
attr interpolationmode sample-hold
attr source "warmup(count(packetPushed) - count(packetPulled) - count(packetRemoved) - count(packetDropped))"
attr title "queue length, timeavg"
attr type int
scalar MultiCell_D2DMultihop.router.ppp[0].ppp.queue packetPushed:count 0
attr interpolationmode none
attr title "packet pushed, count"
scalar MultiCell_D2DMultihop.router.ppp[0].ppp.queue packetPushed:sum(packetBytes) 0
attr interpolationmode none
attr title "packet pushed, sum(packetBytes)"
scalar MultiCell_D2DMultihop.router.ppp[0].ppp.queue packetDropQueueOverflow:count 0
attr interpolationmode none
attr source packetDropReasonIsQueueOverflow(packetDropped)
attr title "packet drops: queue overflow, count"
scalar MultiCell_D2DMultihop.router.ppp[0].ppp.queue packetDropQueueOverflow:sum(packetBytes) 0
attr interpolationmode none
attr source packetDropReasonIsQueueOverflow(packetDropped)
attr title "packet drops: queue overflow, sum(packetBytes)"
scalar MultiCell_D2DMultihop.router.ppp[0].ppp.queue packetRemoved:count 0
attr interpolationmode none
attr title "packets removed, count"
scalar MultiCell_D2DMultihop.router.ppp[0].ppp.queue packetRemoved:sum(packetBytes) 0
attr interpolationmode none
attr title "packets removed, sum(packetBytes)"
par MultiCell_D2DMultihop.router.ppp[0].ppp typename "\"inet.linklayer.ppp.Ppp\""
par MultiCell_D2DMultihop.router.ppp[0].ppp interfaceTableModule "\"MultiCell_D2DMultihop.router.interfaceTable\""
par MultiCell_D2DMultihop.router.ppp[0].ppp displayStringTextFormat "\"rate: %b\\nsent: %s, rcvd: %r\\nqueue: %q, drop: %d\""
par MultiCell_D2DMultihop.router.ppp[0].ppp sendRawBytes false
par MultiCell_D2DMultihop.router.ppp[0].ppp mtu 4470B
attr unit B
par MultiCell_D2DMultihop.router.ppp[0].ppp stopOperationExtraTime -1s
attr unit s
par MultiCell_D2DMultihop.router.ppp[0].ppp stopOperationTimeout 2s
attr unit s
scalar MultiCell_D2DMultihop.router.ppp[0].ppp transmissionState:timeavg -nan
attr interpolationmode sample-hold
attr source transmissionStateChanged
attr title "tx state, timeavg"
scalar MultiCell_D2DMultihop.router.ppp[0].ppp rxPkOk:count 0
attr interpolationmode none
attr source rxPkOk
attr title "packets received OK, count"
scalar MultiCell_D2DMultihop.router.ppp[0].ppp rxPkOk:sum(packetBytes) 0
attr interpolationmode none
attr source rxPkOk
attr title "packets received OK, sum(packetBytes)"
scalar MultiCell_D2DMultihop.router.ppp[0].ppp txPk:count 0
attr interpolationmode none
attr source packetSentToLower
attr title "packets transmitted, count"
scalar MultiCell_D2DMultihop.router.ppp[0].ppp txPk:sum(packetBytes) 0
attr interpolationmode none
attr source packetSentToLower
attr title "packets transmitted, sum(packetBytes)"
scalar MultiCell_D2DMultihop.router.ppp[0].ppp rcvdPkFromHl:count 0
attr interpolationmode none
attr source packetReceivedFromUpper
attr title "packets received from higher layer, count"
scalar MultiCell_D2DMultihop.router.ppp[0].ppp rcvdPkFromHl:sum(packetBytes) 0
attr interpolationmode none
attr source packetReceivedFromUpper
attr title "packets received from higher layer, sum(packetBytes)"
scalar MultiCell_D2DMultihop.router.ppp[0].ppp passedUpPk:count 0
attr interpolationmode none
attr source packetSentToUpper
attr title "packets passed to higher layer, count"
scalar MultiCell_D2DMultihop.router.ppp[0].ppp passedUpPk:sum(packetBytes) 0
attr interpolationmode none
attr source packetSentToUpper
attr title "packets passed to higher layer, sum(packetBytes)"
scalar MultiCell_D2DMultihop.router.ppp[0].ppp packetDropIncorrectlyReceived:count 0
attr interpolationmode none
attr source packetDropReasonIsIncorrectlyReceived(packetDropped)
attr title "packet drop: incorrectly received, count"
scalar MultiCell_D2DMultihop.router.ppp[0].ppp packetDropIncorrectlyReceived:sum(packetBytes) 0
attr interpolationmode none
attr source packetDropReasonIsIncorrectlyReceived(packetDropped)
attr title "packet drop: incorrectly received, sum(packetBytes)"
scalar MultiCell_D2DMultihop.router.ppp[0].ppp packetDropInterfaceDown:count 0
attr interpolationmode none
attr source packetDropReasonIsInterfaceDown(packetDropped)
attr title "packet drop: interface down, count"
scalar MultiCell_D2DMultihop.router.ppp[0].ppp packetDropInterfaceDown:sum(packetBytes) 0
attr interpolationmode none
attr source packetDropReasonIsInterfaceDown(packetDropped)
attr title "packet drop: interface down, sum(packetBytes)"
par MultiCell_D2DMultihop.router.ppp[0] typename "\"inet.linklayer.ppp.PppInterface\""
par MultiCell_D2DMultihop.router.ppp[0] displayStringTextFormat "\"%a (%i)\\n%m\""
par MultiCell_D2DMultihop.router.ppp[0] recordPcap false
par MultiCell_D2DMultihop.router.ppp[0] numPcapRecorders 0
par MultiCell_D2DMultihop.router.ppp[0] interfaceTableModule "\"MultiCell_D2DMultihop.router.interfaceTable\""
par MultiCell_D2DMultihop.router.ppp[1].upperLayerIn.channel typename "\"ned.IdealChannel\""
par MultiCell_D2DMultihop.router.ppp[1].phys$i.channel typename "\"ned.IdealChannel\""
par MultiCell_D2DMultihop.router.ppp[1].ppp.phys$o.channel typename "\"ned.IdealChannel\""
par MultiCell_D2DMultihop.router.ppp[1].ppp.upperLayerOut.channel typename "\"ned.IdealChannel\""
par MultiCell_D2DMultihop.router.ppp[1].ppp.queue typename "\"inet.queueing.queue.DropTailQueue\""
par MultiCell_D2DMultihop.router.ppp[1].ppp.queue displayStringTextFormat "\"contains %p pk (%l) pushed %u\\npulled %o removed %r dropped %d\""
par MultiCell_D2DMultihop.router.ppp[1].ppp.queue packetCapacity 10000
par MultiCell_D2DMultihop.router.ppp[1].ppp.queue dataCapacity -1b
attr unit b
par MultiCell_D2DMultihop.router.ppp[1].ppp.queue dropperClass "\"inet::queueing::PacketAtCollectionEndDropper\""
par MultiCell_D2DMultihop.router.ppp[1].ppp.queue comparatorClass "\"\""
par MultiCell_D2DMultihop.router.ppp[1].ppp.queue bufferModule "\"\""
scalar MultiCell_D2DMultihop.router.ppp[1].ppp.queue packetPulled:count 0
attr interpolationmode none
attr title "packet pulled, count"
scalar MultiCell_D2DMultihop.router.ppp[1].ppp.queue packetPulled:sum(packetBytes) 0
attr interpolationmode none
attr title "packet pulled, sum(packetBytes)"
statistic MultiCell_D2DMultihop.router.ppp[1].ppp.queue queueingTime:histogram
field count 0
field mean -nan
field stddev nan
field min nan
field max nan
field sum 0
field sqrsum 0
attr interpolationmode none
attr source queueingTime(packetPulled)
attr title "queueing times, histogram"
attr unit s
bin	-inf	0
bin	0	0
bin	1	0
scalar MultiCell_D2DMultihop.router.ppp[1].ppp.queue queueLength:max nan
attr autoWarmupFilter false
attr interpolationmode sample-hold
attr source "warmup(count(packetPushed) - count(packetPulled) - count(packetRemoved) - count(packetDropped))"
attr title "queue length, max"
attr type int
scalar MultiCell_D2DMultihop.router.ppp[1].ppp.queue queueLength:timeavg -nan
attr autoWarmupFilter false
attr interpolationmode sample-hold
attr source "warmup(count(packetPushed) - count(packetPulled) - count(packetRemoved) - count(packetDropped))"
attr title "queue length, timeavg"
attr type int
scalar MultiCell_D2DMultihop.router.ppp[1].ppp.queue packetPushed:count 0
attr interpolationmode none
attr title "packet pushed, count"
scalar MultiCell_D2DMultihop.router.ppp[1].ppp.queue packetPushed:sum(packetBytes) 0
attr interpolationmode none
attr title "packet pushed, sum(packetBytes)"
scalar MultiCell_D2DMultihop.router.ppp[1].ppp.queue packetDropQueueOverflow:count 0
attr interpolationmode none
attr source packetDropReasonIsQueueOverflow(packetDropped)
attr title "packet drops: queue overflow, count"
scalar MultiCell_D2DMultihop.router.ppp[1].ppp.queue packetDropQueueOverflow:sum(packetBytes) 0
attr interpolationmode none
attr source packetDropReasonIsQueueOverflow(packetDropped)
attr title "packet drops: queue overflow, sum(packetBytes)"
scalar MultiCell_D2DMultihop.router.ppp[1].ppp.queue packetRemoved:count 0
attr interpolationmode none
attr title "packets removed, count"
scalar MultiCell_D2DMultihop.router.ppp[1].ppp.queue packetRemoved:sum(packetBytes) 0
attr interpolationmode none
attr title "packets removed, sum(packetBytes)"
par MultiCell_D2DMultihop.router.ppp[1].ppp typename "\"inet.linklayer.ppp.Ppp\""
par MultiCell_D2DMultihop.router.ppp[1].ppp interfaceTableModule "\"MultiCell_D2DMultihop.router.interfaceTable\""
par MultiCell_D2DMultihop.router.ppp[1].ppp displayStringTextFormat "\"rate: %b\\nsent: %s, rcvd: %r\\nqueue: %q, drop: %d\""
par MultiCell_D2DMultihop.router.ppp[1].ppp sendRawBytes false
par MultiCell_D2DMultihop.router.ppp[1].ppp mtu 4470B
attr unit B
par MultiCell_D2DMultihop.router.ppp[1].ppp stopOperationExtraTime -1s
attr unit s
par MultiCell_D2DMultihop.router.ppp[1].ppp stopOperationTimeout 2s
attr unit s
scalar MultiCell_D2DMultihop.router.ppp[1].ppp transmissionState:timeavg -nan
attr interpolationmode sample-hold
attr source transmissionStateChanged
attr title "tx state, timeavg"
scalar MultiCell_D2DMultihop.router.ppp[1].ppp rxPkOk:count 0
attr interpolationmode none
attr source rxPkOk
attr title "packets received OK, count"
scalar MultiCell_D2DMultihop.router.ppp[1].ppp rxPkOk:sum(packetBytes) 0
attr interpolationmode none
attr source rxPkOk
attr title "packets received OK, sum(packetBytes)"
scalar MultiCell_D2DMultihop.router.ppp[1].ppp txPk:count 0
attr interpolationmode none
attr source packetSentToLower
attr title "packets transmitted, count"
scalar MultiCell_D2DMultihop.router.ppp[1].ppp txPk:sum(packetBytes) 0
attr interpolationmode none
attr source packetSentToLower
attr title "packets transmitted, sum(packetBytes)"
scalar MultiCell_D2DMultihop.router.ppp[1].ppp rcvdPkFromHl:count 0
attr interpolationmode none
attr source packetReceivedFromUpper
attr title "packets received from higher layer, count"
scalar MultiCell_D2DMultihop.router.ppp[1].ppp rcvdPkFromHl:sum(packetBytes) 0
attr interpolationmode none
attr source packetReceivedFromUpper
attr title "packets received from higher layer, sum(packetBytes)"
scalar MultiCell_D2DMultihop.router.ppp[1].ppp passedUpPk:count 0
attr interpolationmode none
attr source packetSentToUpper
attr title "packets passed to higher layer, count"
scalar MultiCell_D2DMultihop.router.ppp[1].ppp passedUpPk:sum(packetBytes) 0
attr interpolationmode none
attr source packetSentToUpper
attr title "packets passed to higher layer, sum(packetBytes)"
scalar MultiCell_D2DMultihop.router.ppp[1].ppp packetDropIncorrectlyReceived:count 0
attr interpolationmode none
attr source packetDropReasonIsIncorrectlyReceived(packetDropped)
attr title "packet drop: incorrectly received, count"
scalar MultiCell_D2DMultihop.router.ppp[1].ppp packetDropIncorrectlyReceived:sum(packetBytes) 0
attr interpolationmode none
attr source packetDropReasonIsIncorrectlyReceived(packetDropped)
attr title "packet drop: incorrectly received, sum(packetBytes)"
scalar MultiCell_D2DMultihop.router.ppp[1].ppp packetDropInterfaceDown:count 0
attr interpolationmode none
attr source packetDropReasonIsInterfaceDown(packetDropped)
attr title "packet drop: interface down, count"
scalar MultiCell_D2DMultihop.router.ppp[1].ppp packetDropInterfaceDown:sum(packetBytes) 0
attr interpolationmode none
attr source packetDropReasonIsInterfaceDown(packetDropped)
attr title "packet drop: interface down, sum(packetBytes)"
par MultiCell_D2DMultihop.router.ppp[1] typename "\"inet.linklayer.ppp.PppInterface\""
par MultiCell_D2DMultihop.router.ppp[1] displayStringTextFormat "\"%a (%i)\\n%m\""
par MultiCell_D2DMultihop.router.ppp[1] recordPcap false
par MultiCell_D2DMultihop.router.ppp[1] numPcapRecorders 0
par MultiCell_D2DMultihop.router.ppp[1] interfaceTableModule "\"MultiCell_D2DMultihop.router.interfaceTable\""
par MultiCell_D2DMultihop.router.ipv4.transportIn.channel typename "\"ned.IdealChannel\""
par MultiCell_D2DMultihop.router.ipv4.up.out[0].channel typename "\"ned.IdealChannel\""
par MultiCell_D2DMultihop.router.ipv4.lp.out[2].channel typename "\"ned.IdealChannel\""
par MultiCell_D2DMultihop.router.ipv4.ifIn.channel typename "\"ned.IdealChannel\""
par MultiCell_D2DMultihop.router.ipv4.configurator typename "\"inet.networklayer.configurator.ipv4.Ipv4NodeConfigurator\""
par MultiCell_D2DMultihop.router.ipv4.configurator interfaceTableModule "\"MultiCell_D2DMultihop.router.interfaceTable\""
par MultiCell_D2DMultihop.router.ipv4.configurator routingTableModule "\"MultiCell_D2DMultihop.router.ipv4.routingTable\""
par MultiCell_D2DMultihop.router.ipv4.configurator networkConfiguratorModule "\"configurator\""
par MultiCell_D2DMultihop.router.ipv4.configurator configureRoutingTable true
par MultiCell_D2DMultihop.router.ipv4.routingTable typename "\"inet.networklayer.ipv4.Ipv4RoutingTable\""
par MultiCell_D2DMultihop.router.ipv4.routingTable interfaceTableModule "\"MultiCell_D2DMultihop.router.interfaceTable\""
par MultiCell_D2DMultihop.router.ipv4.routingTable routerId "\"auto\""
par MultiCell_D2DMultihop.router.ipv4.routingTable netmaskRoutes "\"*\""
par MultiCell_D2DMultihop.router.ipv4.routingTable forwarding true
par MultiCell_D2DMultihop.router.ipv4.routingTable multicastForwarding false
par MultiCell_D2DMultihop.router.ipv4.routingTable useAdminDist false
par MultiCell_D2DMultihop.router.ipv4.routingTable routingFile "\"\""
par MultiCell_D2DMultihop.router.ipv4.natTable typename "\"inet.networklayer.ipv4.Ipv4NatTable\""
par MultiCell_D2DMultihop.router.ipv4.natTable networkProtocolModule "\"^.ip\""
par MultiCell_D2DMultihop.router.ipv4.natTable config "<config/> at content:1"
par MultiCell_D2DMultihop.router.ipv4.up typename "\"inet.common.MessageDispatcher\""
par MultiCell_D2DMultihop.router.ipv4.up displayStringTextFormat "\"processed %p pk (%l)\""
par MultiCell_D2DMultihop.router.ipv4.igmp typename "\"inet.networklayer.ipv4.Igmpv2\""
par MultiCell_D2DMultihop.router.ipv4.igmp interfaceTableModule "\"MultiCell_D2DMultihop.router.interfaceTable\""
par MultiCell_D2DMultihop.router.ipv4.igmp routingTableModule "\"MultiCell_D2DMultihop.router.ipv4.routingTable\""
par MultiCell_D2DMultihop.router.ipv4.igmp crcMode "\"declared\""
attr enum declared,computed
par MultiCell_D2DMultihop.router.ipv4.igmp enabled true
par MultiCell_D2DMultihop.router.ipv4.igmp robustnessVariable 2
par MultiCell_D2DMultihop.router.ipv4.igmp queryInterval 125s
attr unit s
par MultiCell_D2DMultihop.router.ipv4.igmp queryResponseInterval 10s
attr unit s
par MultiCell_D2DMultihop.router.ipv4.igmp groupMembershipInterval 260s
attr unit s
par MultiCell_D2DMultihop.router.ipv4.igmp otherQuerierPresentInterval 255s
attr unit s
par MultiCell_D2DMultihop.router.ipv4.igmp startupQueryInterval 31.25s
attr unit s
par MultiCell_D2DMultihop.router.ipv4.igmp startupQueryCount 2
par MultiCell_D2DMultihop.router.ipv4.igmp lastMemberQueryInterval 1s
attr unit s
par MultiCell_D2DMultihop.router.ipv4.igmp lastMemberQueryCount 2
par MultiCell_D2DMultihop.router.ipv4.igmp unsolicitedReportInterval 10s
attr unit s
par MultiCell_D2DMultihop.router.ipv4.icmp typename "\"inet.networklayer.ipv4.Icmp\""
par MultiCell_D2DMultihop.router.ipv4.icmp interfaceTableModule "\"MultiCell_D2DMultihop.router.interfaceTable\""
par MultiCell_D2DMultihop.router.ipv4.icmp routingTableModule "\"MultiCell_D2DMultihop.router.ipv4.routingTable\""
par MultiCell_D2DMultihop.router.ipv4.icmp crcMode "\"declared\""
attr enum declared,computed
par MultiCell_D2DMultihop.router.ipv4.icmp quoteLength 8B
attr unit B
par MultiCell_D2DMultihop.router.ipv4.mp typename "\"inet.common.MessageDispatcher\""
par MultiCell_D2DMultihop.router.ipv4.mp displayStringTextFormat "\"processed %p pk (%l)\""
par MultiCell_D2DMultihop.router.ipv4.ip typename "\"inet.networklayer.ipv4.Ipv4\""
par MultiCell_D2DMultihop.router.ipv4.ip interfaceTableModule "\"MultiCell_D2DMultihop.router.interfaceTable\""
par MultiCell_D2DMultihop.router.ipv4.ip routingTableModule "\"MultiCell_D2DMultihop.router.ipv4.routingTable\""
par MultiCell_D2DMultihop.router.ipv4.ip arpModule "\"MultiCell_D2DMultihop.router.ipv4.arp\""
par MultiCell_D2DMultihop.router.ipv4.ip icmpModule "\"MultiCell_D2DMultihop.router.ipv4.icmp\""
par MultiCell_D2DMultihop.router.ipv4.ip crcMode "\"declared\""
attr enum declared,computed
par MultiCell_D2DMultihop.router.ipv4.ip timeToLive 32
par MultiCell_D2DMultihop.router.ipv4.ip multicastTimeToLive 32
par MultiCell_D2DMultihop.router.ipv4.ip fragmentTimeout 60s
attr unit s
par MultiCell_D2DMultihop.router.ipv4.ip limitedBroadcast false
par MultiCell_D2DMultihop.router.ipv4.ip directBroadcastInterfaces "\"\""
scalar MultiCell_D2DMultihop.router.ipv4.ip packetDropAddressResolutionFailed:count 0
attr interpolationmode none
attr source packetDropReasonIsAddressResolutionFailed(packetDropped)
attr title "packet drop: address resolution failed, count"
scalar MultiCell_D2DMultihop.router.ipv4.ip packetDropAddressResolutionFailed:sum(packetBytes) 0
attr interpolationmode none
attr source packetDropReasonIsAddressResolutionFailed(packetDropped)
attr title "packet drop: address resolution failed, sum(packetBytes)"
scalar MultiCell_D2DMultihop.router.ipv4.ip packetDropHopLimitReached:count 0
attr interpolationmode none
attr source packetDropReasonIsHopLimitReached(packetDropped)
attr title "packet drop: hop limit reached, count"
scalar MultiCell_D2DMultihop.router.ipv4.ip packetDropHopLimitReached:sum(packetBytes) 0
attr interpolationmode none
attr source packetDropReasonIsHopLimitReached(packetDropped)
attr title "packet drop: hop limit reached, sum(packetBytes)"
scalar MultiCell_D2DMultihop.router.ipv4.ip packetDropForwardingDisabled:count 0
attr interpolationmode none
attr source packetDropReasonIsForwardingDisabled(packetDropped)
attr title "packet drop: forwarding disabled, count"
scalar MultiCell_D2DMultihop.router.ipv4.ip packetDropForwardingDisabled:sum(packetBytes) 0
attr interpolationmode none
attr source packetDropReasonIsForwardingDisabled(packetDropped)
attr title "packet drop: forwarding disabled, sum(packetBytes)"
scalar MultiCell_D2DMultihop.router.ipv4.ip packetDropNoInterfaceFound:count 0
attr interpolationmode none
attr source packetDropReasonIsNoInterfaceFound(packetDropped)
attr title "packet drop: no interface found, count"
scalar MultiCell_D2DMultihop.router.ipv4.ip packetDropNoInterfaceFound:sum(packetBytes) 0
attr interpolationmode none
attr source packetDropReasonIsNoInterfaceFound(packetDropped)
attr title "packet drop: no interface found, sum(packetBytes)"
scalar MultiCell_D2DMultihop.router.ipv4.ip packetDropNoRouteFound:count 0
attr interpolationmode none
attr source packetDropReasonIsNoRouteFound(packetDropped)
attr title "packet drop: no route found, count"
scalar MultiCell_D2DMultihop.router.ipv4.ip packetDropNoRouteFound:sum(packetBytes) 0
attr interpolationmode none
attr source packetDropReasonIsNoRouteFound(packetDropped)
attr title "packet drop: no route found, sum(packetBytes)"
scalar MultiCell_D2DMultihop.router.ipv4.ip packetDropUndefined:count 0
attr interpolationmode none
attr source packetDropReasonIsUndefined(packetDropped)
attr title "packet drop: undefined, count"
scalar MultiCell_D2DMultihop.router.ipv4.ip packetDropUndefined:sum(packetBytes) 0
attr interpolationmode none
attr source packetDropReasonIsUndefined(packetDropped)
attr title "packet drop: undefined, sum(packetBytes)"
par MultiCell_D2DMultihop.router.ipv4.arp typename "\"inet.networklayer.arp.ipv4.Arp\""
par MultiCell_D2DMultihop.router.ipv4.arp interfaceTableModule "\"MultiCell_D2DMultihop.router.interfaceTable\""
par MultiCell_D2DMultihop.router.ipv4.arp routingTableModule "\"MultiCell_D2DMultihop.router.ipv4.routingTable\""
par MultiCell_D2DMultihop.router.ipv4.arp retryTimeout 1s
attr unit s
par MultiCell_D2DMultihop.router.ipv4.arp retryCount 3
par MultiCell_D2DMultihop.router.ipv4.arp cacheTimeout 120s
attr unit s
par MultiCell_D2DMultihop.router.ipv4.arp proxyArpInterfaces "\"*\""
scalar MultiCell_D2DMultihop.router.ipv4.arp arpResolutionFailed:count 0
attr title "ARP failed resolutions, count"
scalar MultiCell_D2DMultihop.router.ipv4.arp arpResolutionCompleted:count 0
attr title "ARP completed resolutions, count"
scalar MultiCell_D2DMultihop.router.ipv4.arp arpResolutionInitiated:count 0
attr title "ARP initiated resolutions, count"
scalar MultiCell_D2DMultihop.router.ipv4.arp arpReplySent:count 0
attr source arpReplySent
attr title "ARP replies sent, count"
scalar MultiCell_D2DMultihop.router.ipv4.arp arpReplySent:sum(packetBytes) 0
attr source arpReplySent
attr title "ARP replies sent, sum(packetBytes)"
scalar MultiCell_D2DMultihop.router.ipv4.arp arpRequestSent:count 0
attr source arpRequestSent
attr title "ARP request sent, count"
scalar MultiCell_D2DMultihop.router.ipv4.arp arpRequestSent:sum(packetBytes) 0
attr source arpRequestSent
attr title "ARP request sent, sum(packetBytes)"
par MultiCell_D2DMultihop.router.ipv4.lp typename "\"inet.common.MessageDispatcher\""
par MultiCell_D2DMultihop.router.ipv4.lp displayStringTextFormat "\"processed %p pk (%l)\""
par MultiCell_D2DMultihop.router.ipv4 typename "\"inet.networklayer.ipv4.Ipv4NetworkLayer\""
par MultiCell_D2DMultihop.router.ipv4 forwarding true
par MultiCell_D2DMultihop.router.ipv4 multicastForwarding false
par MultiCell_D2DMultihop.router.ipv4 interfaceTableModule "\"MultiCell_D2DMultihop.router.interfaceTable\""
par MultiCell_D2DMultihop.router.ipv4 displayStringTextFormat "\"%i\""
par MultiCell_D2DMultihop.router.nl typename "\"inet.common.MessageDispatcher\""
par MultiCell_D2DMultihop.router.nl displayStringTextFormat "\"processed %p pk (%l)\""
par MultiCell_D2DMultihop.router.tn typename "\"inet.common.MessageDispatcher\""
par MultiCell_D2DMultihop.router.tn displayStringTextFormat "\"processed %p pk (%l)\""
par MultiCell_D2DMultihop.router.at typename "\"inet.common.MessageDispatcher\""
par MultiCell_D2DMultihop.router.at displayStringTextFormat "\"processed %p pk (%l)\""
par MultiCell_D2DMultihop.router typename "\"inet.node.inet.Router\""
par MultiCell_D2DMultihop.router hasStatus false
par MultiCell_D2DMultihop.router osgModel "\"\""
par MultiCell_D2DMultihop.router osgModelColor "\"\""
par MultiCell_D2DMultihop.router canvasImage "\"\""
par MultiCell_D2DMultihop.router canvasImageColor "\"\""
par MultiCell_D2DMultihop.router recordPcap false
par MultiCell_D2DMultihop.router numPcapRecorders 0
par MultiCell_D2DMultihop.router numLoInterfaces 1
par MultiCell_D2DMultihop.router numWlanInterfaces 0
par MultiCell_D2DMultihop.router numEthInterfaces 0
par MultiCell_D2DMultihop.router numPppInterfaces 0
par MultiCell_D2DMultihop.router numTunInterfaces 0
par MultiCell_D2DMultihop.router numVirtInterfaces 0
par MultiCell_D2DMultihop.router hasIpv4 true
par MultiCell_D2DMultihop.router hasIpv6 false
par MultiCell_D2DMultihop.router hasGn false
par MultiCell_D2DMultihop.router forwarding true
par MultiCell_D2DMultihop.router multicastForwarding false
par MultiCell_D2DMultihop.router hasUdp false
par MultiCell_D2DMultihop.router hasTcp false
par MultiCell_D2DMultihop.router hasSctp false
par MultiCell_D2DMultihop.router numApps 0
par MultiCell_D2DMultihop.router hasEigrp false
par MultiCell_D2DMultihop.router hasOspf false
par MultiCell_D2DMultihop.router hasRip false
par MultiCell_D2DMultihop.router hasBgp false
par MultiCell_D2DMultihop.router hasPim false
par MultiCell_D2DMultihop.router hasDhcp false
par MultiCell_D2DMultihop.router1.pppg$i[0].channel typename "\"ned.IdealChannel\""
par MultiCell_D2DMultihop.router1.ppp[0].phys$o.channel typename "\"ned.IdealChannel\""
par MultiCell_D2DMultihop.router1.pppg$i[1].channel typename "\"ned.IdealChannel\""
par MultiCell_D2DMultihop.router1.ppp[1].phys$o.channel typename "\"ned.IdealChannel\""
par MultiCell_D2DMultihop.router1.interfaceTable typename "\"inet.networklayer.common.InterfaceTable\""
par MultiCell_D2DMultihop.router1.interfaceTable displayAddresses false
par MultiCell_D2DMultihop.router1.li typename "\"inet.common.MessageDispatcher\""
par MultiCell_D2DMultihop.router1.li displayStringTextFormat "\"processed %p pk (%l)\""
par MultiCell_D2DMultihop.router1.lo[0].upperLayerIn.channel typename "\"ned.IdealChannel\""
par MultiCell_D2DMultihop.router1.lo[0].lo.upperLayerOut.channel typename "\"ned.IdealChannel\""
par MultiCell_D2DMultihop.router1.lo[0].lo typename "\"inet.linklayer.loopback.Loopback\""
par MultiCell_D2DMultihop.router1.lo[0].lo interfaceTableModule "\"MultiCell_D2DMultihop.router1.interfaceTable\""
par MultiCell_D2DMultihop.router1.lo[0].lo mtu 4470B
attr unit B
scalar MultiCell_D2DMultihop.router1.lo[0].lo rcvdPkFromHl:count 0
attr interpolationmode none
attr source packetReceivedFromUpper
attr title "packets received from higher layer, count"
scalar MultiCell_D2DMultihop.router1.lo[0].lo rcvdPkFromHl:sum(packetBytes) 0
attr interpolationmode none
attr source packetReceivedFromUpper
attr title "packets received from higher layer, sum(packetBytes)"
scalar MultiCell_D2DMultihop.router1.lo[0].lo passedUpPk:count 0
attr interpolationmode none
attr source packetSentToUpper
attr title "packets passed to higher layer, count"
scalar MultiCell_D2DMultihop.router1.lo[0].lo passedUpPk:sum(packetBytes) 0
attr interpolationmode none
attr source packetSentToUpper
attr title "packets passed to higher layer, sum(packetBytes)"
par MultiCell_D2DMultihop.router1.lo[0] typename "\"inet.linklayer.loopback.LoopbackInterface\""
par MultiCell_D2DMultihop.router1.lo[0] displayStringTextFormat "\"%a (%i)\\n%m\""
par MultiCell_D2DMultihop.router1.lo[0] recordPcap false
par MultiCell_D2DMultihop.router1.lo[0] numPcapRecorders 0
par MultiCell_D2DMultihop.router1.lo[0] interfaceTableModule "\"MultiCell_D2DMultihop.router1.interfaceTable\""
par MultiCell_D2DMultihop.router1.ppp[0].upperLayerIn.channel typename "\"ned.IdealChannel\""
par MultiCell_D2DMultihop.router1.ppp[0].phys$i.channel typename "\"ned.IdealChannel\""
par MultiCell_D2DMultihop.router1.ppp[0].ppp.phys$o.channel typename "\"ned.IdealChannel\""
par MultiCell_D2DMultihop.router1.ppp[0].ppp.upperLayerOut.channel typename "\"ned.IdealChannel\""
par MultiCell_D2DMultihop.router1.ppp[0].ppp.queue typename "\"inet.queueing.queue.DropTailQueue\""
par MultiCell_D2DMultihop.router1.ppp[0].ppp.queue displayStringTextFormat "\"contains %p pk (%l) pushed %u\\npulled %o removed %r dropped %d\""
par MultiCell_D2DMultihop.router1.ppp[0].ppp.queue packetCapacity 10000
par MultiCell_D2DMultihop.router1.ppp[0].ppp.queue dataCapacity -1b
attr unit b
par MultiCell_D2DMultihop.router1.ppp[0].ppp.queue dropperClass "\"inet::queueing::PacketAtCollectionEndDropper\""
par MultiCell_D2DMultihop.router1.ppp[0].ppp.queue comparatorClass "\"\""
par MultiCell_D2DMultihop.router1.ppp[0].ppp.queue bufferModule "\"\""
scalar MultiCell_D2DMultihop.router1.ppp[0].ppp.queue packetPulled:count 0
attr interpolationmode none
attr title "packet pulled, count"
scalar MultiCell_D2DMultihop.router1.ppp[0].ppp.queue packetPulled:sum(packetBytes) 0
attr interpolationmode none
attr title "packet pulled, sum(packetBytes)"
statistic MultiCell_D2DMultihop.router1.ppp[0].ppp.queue queueingTime:histogram
field count 0
field mean -nan
field stddev nan
field min nan
field max nan
field sum 0
field sqrsum 0
attr interpolationmode none
attr source queueingTime(packetPulled)
attr title "queueing times, histogram"
attr unit s
bin	-inf	0
bin	0	0
bin	1	0
scalar MultiCell_D2DMultihop.router1.ppp[0].ppp.queue queueLength:max nan
attr autoWarmupFilter false
attr interpolationmode sample-hold
attr source "warmup(count(packetPushed) - count(packetPulled) - count(packetRemoved) - count(packetDropped))"
attr title "queue length, max"
attr type int
scalar MultiCell_D2DMultihop.router1.ppp[0].ppp.queue queueLength:timeavg -nan
attr autoWarmupFilter false
attr interpolationmode sample-hold
attr source "warmup(count(packetPushed) - count(packetPulled) - count(packetRemoved) - count(packetDropped))"
attr title "queue length, timeavg"
attr type int
scalar MultiCell_D2DMultihop.router1.ppp[0].ppp.queue packetPushed:count 0
attr interpolationmode none
attr title "packet pushed, count"
scalar MultiCell_D2DMultihop.router1.ppp[0].ppp.queue packetPushed:sum(packetBytes) 0
attr interpolationmode none
attr title "packet pushed, sum(packetBytes)"
scalar MultiCell_D2DMultihop.router1.ppp[0].ppp.queue packetDropQueueOverflow:count 0
attr interpolationmode none
attr source packetDropReasonIsQueueOverflow(packetDropped)
attr title "packet drops: queue overflow, count"
scalar MultiCell_D2DMultihop.router1.ppp[0].ppp.queue packetDropQueueOverflow:sum(packetBytes) 0
attr interpolationmode none
attr source packetDropReasonIsQueueOverflow(packetDropped)
attr title "packet drops: queue overflow, sum(packetBytes)"
scalar MultiCell_D2DMultihop.router1.ppp[0].ppp.queue packetRemoved:count 0
attr interpolationmode none
attr title "packets removed, count"
scalar MultiCell_D2DMultihop.router1.ppp[0].ppp.queue packetRemoved:sum(packetBytes) 0
attr interpolationmode none
attr title "packets removed, sum(packetBytes)"
par MultiCell_D2DMultihop.router1.ppp[0].ppp typename "\"inet.linklayer.ppp.Ppp\""
par MultiCell_D2DMultihop.router1.ppp[0].ppp interfaceTableModule "\"MultiCell_D2DMultihop.router1.interfaceTable\""
par MultiCell_D2DMultihop.router1.ppp[0].ppp displayStringTextFormat "\"rate: %b\\nsent: %s, rcvd: %r\\nqueue: %q, drop: %d\""
par MultiCell_D2DMultihop.router1.ppp[0].ppp sendRawBytes false
par MultiCell_D2DMultihop.router1.ppp[0].ppp mtu 4470B
attr unit B
par MultiCell_D2DMultihop.router1.ppp[0].ppp stopOperationExtraTime -1s
attr unit s
par MultiCell_D2DMultihop.router1.ppp[0].ppp stopOperationTimeout 2s
attr unit s
scalar MultiCell_D2DMultihop.router1.ppp[0].ppp transmissionState:timeavg -nan
attr interpolationmode sample-hold
attr source transmissionStateChanged
attr title "tx state, timeavg"
scalar MultiCell_D2DMultihop.router1.ppp[0].ppp rxPkOk:count 0
attr interpolationmode none
attr source rxPkOk
attr title "packets received OK, count"
scalar MultiCell_D2DMultihop.router1.ppp[0].ppp rxPkOk:sum(packetBytes) 0
attr interpolationmode none
attr source rxPkOk
attr title "packets received OK, sum(packetBytes)"
scalar MultiCell_D2DMultihop.router1.ppp[0].ppp txPk:count 0
attr interpolationmode none
attr source packetSentToLower
attr title "packets transmitted, count"
scalar MultiCell_D2DMultihop.router1.ppp[0].ppp txPk:sum(packetBytes) 0
attr interpolationmode none
attr source packetSentToLower
attr title "packets transmitted, sum(packetBytes)"
scalar MultiCell_D2DMultihop.router1.ppp[0].ppp rcvdPkFromHl:count 0
attr interpolationmode none
attr source packetReceivedFromUpper
attr title "packets received from higher layer, count"
scalar MultiCell_D2DMultihop.router1.ppp[0].ppp rcvdPkFromHl:sum(packetBytes) 0
attr interpolationmode none
attr source packetReceivedFromUpper
attr title "packets received from higher layer, sum(packetBytes)"
scalar MultiCell_D2DMultihop.router1.ppp[0].ppp passedUpPk:count 0
attr interpolationmode none
attr source packetSentToUpper
attr title "packets passed to higher layer, count"
scalar MultiCell_D2DMultihop.router1.ppp[0].ppp passedUpPk:sum(packetBytes) 0
attr interpolationmode none
attr source packetSentToUpper
attr title "packets passed to higher layer, sum(packetBytes)"
scalar MultiCell_D2DMultihop.router1.ppp[0].ppp packetDropIncorrectlyReceived:count 0
attr interpolationmode none
attr source packetDropReasonIsIncorrectlyReceived(packetDropped)
attr title "packet drop: incorrectly received, count"
scalar MultiCell_D2DMultihop.router1.ppp[0].ppp packetDropIncorrectlyReceived:sum(packetBytes) 0
attr interpolationmode none
attr source packetDropReasonIsIncorrectlyReceived(packetDropped)
attr title "packet drop: incorrectly received, sum(packetBytes)"
scalar MultiCell_D2DMultihop.router1.ppp[0].ppp packetDropInterfaceDown:count 0
attr interpolationmode none
attr source packetDropReasonIsInterfaceDown(packetDropped)
attr title "packet drop: interface down, count"
scalar MultiCell_D2DMultihop.router1.ppp[0].ppp packetDropInterfaceDown:sum(packetBytes) 0
attr interpolationmode none
attr source packetDropReasonIsInterfaceDown(packetDropped)
attr title "packet drop: interface down, sum(packetBytes)"
par MultiCell_D2DMultihop.router1.ppp[0] typename "\"inet.linklayer.ppp.PppInterface\""
par MultiCell_D2DMultihop.router1.ppp[0] displayStringTextFormat "\"%a (%i)\\n%m\""
par MultiCell_D2DMultihop.router1.ppp[0] recordPcap false
par MultiCell_D2DMultihop.router1.ppp[0] numPcapRecorders 0
par MultiCell_D2DMultihop.router1.ppp[0] interfaceTableModule "\"MultiCell_D2DMultihop.router1.interfaceTable\""
par MultiCell_D2DMultihop.router1.ppp[1].upperLayerIn.channel typename "\"ned.IdealChannel\""
par MultiCell_D2DMultihop.router1.ppp[1].phys$i.channel typename "\"ned.IdealChannel\""
par MultiCell_D2DMultihop.router1.ppp[1].ppp.phys$o.channel typename "\"ned.IdealChannel\""
par MultiCell_D2DMultihop.router1.ppp[1].ppp.upperLayerOut.channel typename "\"ned.IdealChannel\""
par MultiCell_D2DMultihop.router1.ppp[1].ppp.queue typename "\"inet.queueing.queue.DropTailQueue\""
par MultiCell_D2DMultihop.router1.ppp[1].ppp.queue displayStringTextFormat "\"contains %p pk (%l) pushed %u\\npulled %o removed %r dropped %d\""
par MultiCell_D2DMultihop.router1.ppp[1].ppp.queue packetCapacity 10000
par MultiCell_D2DMultihop.router1.ppp[1].ppp.queue dataCapacity -1b
attr unit b
par MultiCell_D2DMultihop.router1.ppp[1].ppp.queue dropperClass "\"inet::queueing::PacketAtCollectionEndDropper\""
par MultiCell_D2DMultihop.router1.ppp[1].ppp.queue comparatorClass "\"\""
par MultiCell_D2DMultihop.router1.ppp[1].ppp.queue bufferModule "\"\""
scalar MultiCell_D2DMultihop.router1.ppp[1].ppp.queue packetPulled:count 0
attr interpolationmode none
attr title "packet pulled, count"
scalar MultiCell_D2DMultihop.router1.ppp[1].ppp.queue packetPulled:sum(packetBytes) 0
attr interpolationmode none
attr title "packet pulled, sum(packetBytes)"
statistic MultiCell_D2DMultihop.router1.ppp[1].ppp.queue queueingTime:histogram
field count 0
field mean -nan
field stddev nan
field min nan
field max nan
field sum 0
field sqrsum 0
attr interpolationmode none
attr source queueingTime(packetPulled)
attr title "queueing times, histogram"
attr unit s
bin	-inf	0
bin	0	0
bin	1	0
scalar MultiCell_D2DMultihop.router1.ppp[1].ppp.queue queueLength:max nan
attr autoWarmupFilter false
attr interpolationmode sample-hold
attr source "warmup(count(packetPushed) - count(packetPulled) - count(packetRemoved) - count(packetDropped))"
attr title "queue length, max"
attr type int
scalar MultiCell_D2DMultihop.router1.ppp[1].ppp.queue queueLength:timeavg -nan
attr autoWarmupFilter false
attr interpolationmode sample-hold
attr source "warmup(count(packetPushed) - count(packetPulled) - count(packetRemoved) - count(packetDropped))"
attr title "queue length, timeavg"
attr type int
scalar MultiCell_D2DMultihop.router1.ppp[1].ppp.queue packetPushed:count 0
attr interpolationmode none
attr title "packet pushed, count"
[...]
attr unit ""
scalar MultiCell_D2DMultihop.ue5[0].cellularNic.mac harqErrorRate_1st_Dl:mean -nan
attr source harqErrorRate_1st_Dl
attr title "Harq Error Rate Dl, mean"
attr unit ""
scalar MultiCell_D2DMultihop.ue5[0].cellularNic.mac harqErrorRate_1st_Ul:mean -nan
attr source harqErrorRate_1st_Ul
attr title "Harq Error Rate Ul, mean"
attr unit ""
scalar MultiCell_D2DMultihop.ue5[0].cellularNic.mac harqTxAttemptsUl:mean -nan
attr source harqTxAttemptsUl
attr title "Harq Tx Attempts Ul, mean"
attr unit ""
scalar MultiCell_D2DMultihop.ue5[0].cellularNic.mac harqTxAttemptsDl:mean -nan
attr source harqTxAttemptsDl
attr title "Harq Tx Attempts Dl, mean"
attr unit ""
scalar MultiCell_D2DMultihop.ue5[0].cellularNic.mac harqErrorRateDl:mean -nan
attr source harqErrorRateDl
attr title "Harq Error Rate Dl, mean"
attr unit ""
scalar MultiCell_D2DMultihop.ue5[0].cellularNic.mac harqErrorRateUl:mean -nan
attr source harqErrorRateUl
attr title "Harq Error Rate Ul, mean"
attr unit ""
scalar MultiCell_D2DMultihop.ue5[0].cellularNic.mac macBufferOverFlowD2D:mean -nan
attr source macBufferOverFlowD2D
attr title "Mac buffer overflow as function of time, mean"
attr unit Byte/s
scalar MultiCell_D2DMultihop.ue5[0].cellularNic.mac macBufferOverFlowUl:mean -nan
attr source macBufferOverFlowUl
attr title "Mac buffer overflow as function of time, mean"
attr unit Byte/s
scalar MultiCell_D2DMultihop.ue5[0].cellularNic.mac macBufferOverFlowDl:mean -nan
attr source macBufferOverFlowDl
attr title "Mac buffer overflow as function of time, mean"
attr unit Byte/s
scalar MultiCell_D2DMultihop.ue5[0].cellularNic.mac macPacketLossDl:mean -nan
attr source macPacketLossDl
attr title "Mac Packet Loss Dl, mean"
attr unit ""
scalar MultiCell_D2DMultihop.ue5[0].cellularNic.mac macPacketLossUl:mean -nan
attr source macPacketLossUl
attr title "Mac Packet Loss Ul, mean"
attr unit ""
scalar MultiCell_D2DMultihop.ue5[0].cellularNic.mac macCellPacketLossUl:mean -nan
attr source macCellPacketLossUl
attr title "Mac Cell Packet Loss Ul, mean"
attr unit ""
scalar MultiCell_D2DMultihop.ue5[0].cellularNic.mac macCellPacketLossDl:mean -nan
attr source macCellPacketLossDl
attr title "Mac Cell Packet Loss Dl, mean"
attr unit ""
scalar MultiCell_D2DMultihop.ue5[0].cellularNic.mac macCellThroughputDl:mean -nan
attr source macCellThroughputDl
attr title "Cell Throughput at the MAC layer DL, mean"
attr unit Bps
scalar MultiCell_D2DMultihop.ue5[0].cellularNic.mac macCellThroughputUl:mean -nan
attr source macCellThroughputUl
attr title "Cell Throughput at the MAC layer UL, mean"
attr unit Bps
scalar MultiCell_D2DMultihop.ue5[0].cellularNic.mac macThroughputUl:mean -nan
attr source macThroughputUl
attr title "Throughput at the MAC layer UL, mean"
attr unit Bps
scalar MultiCell_D2DMultihop.ue5[0].cellularNic.mac macDelayUl:mean -nan
attr source macDelayUl
attr title "Delay at the MAC layer UL, mean"
attr unit s
scalar MultiCell_D2DMultihop.ue5[0].cellularNic.mac macThroughputDl:mean -nan
attr source macThroughputDl
attr title "Throughput at the MAC layer DL, mean"
attr unit Bps
scalar MultiCell_D2DMultihop.ue5[0].cellularNic.mac macDelayDl:mean -nan
attr source macDelayDl
attr title "Delay at the MAC layer UL, mean"
attr unit s
scalar MultiCell_D2DMultihop.ue5[0].cellularNic.mac sentPacketToLowerLayer:count 0
attr interpolationmode none
attr source sentPacketToLowerLayer
scalar MultiCell_D2DMultihop.ue5[0].cellularNic.mac sentPacketToLowerLayer:sum(packetBytes) 0
attr interpolationmode none
attr source sentPacketToLowerLayer
scalar MultiCell_D2DMultihop.ue5[0].cellularNic.mac sentPacketToUpperLayer:count 0
attr interpolationmode none
attr source sentPacketToUpperLayer
scalar MultiCell_D2DMultihop.ue5[0].cellularNic.mac sentPacketToUpperLayer:sum(packetBytes) 0
attr interpolationmode none
attr source sentPacketToUpperLayer
scalar MultiCell_D2DMultihop.ue5[0].cellularNic.mac receivedPacketFromLowerLayer:count 0
attr interpolationmode none
attr source receivedPacketFromLowerLayer
scalar MultiCell_D2DMultihop.ue5[0].cellularNic.mac receivedPacketFromLowerLayer:sum(packetBytes) 0
attr interpolationmode none
attr source receivedPacketFromLowerLayer
scalar MultiCell_D2DMultihop.ue5[0].cellularNic.mac receivedPacketFromUpperLayer:count 0
attr interpolationmode none
attr source receivedPacketFromUpperLayer
scalar MultiCell_D2DMultihop.ue5[0].cellularNic.mac receivedPacketFromUpperLayer:sum(packetBytes) 0
attr interpolationmode none
attr source receivedPacketFromUpperLayer
par MultiCell_D2DMultihop.ue5[0].cellularNic.phy typename "\"simu5g.stack.phy.LtePhyUeD2D\""
par MultiCell_D2DMultihop.ue5[0].cellularNic.phy ueTxPower 30
par MultiCell_D2DMultihop.ue5[0].cellularNic.phy eNodeBTxPower 46
par MultiCell_D2DMultihop.ue5[0].cellularNic.phy microTxPower 30
par MultiCell_D2DMultihop.ue5[0].cellularNic.phy txDirection "\"OMNI\""
par MultiCell_D2DMultihop.ue5[0].cellularNic.phy txAngle 0
par MultiCell_D2DMultihop.ue5[0].cellularNic.phy dynamicCellAssociation false
par MultiCell_D2DMultihop.ue5[0].cellularNic.phy enableHandover false
par MultiCell_D2DMultihop.ue5[0].cellularNic.phy handoverLatency 0.05s
attr unit s
par MultiCell_D2DMultihop.ue5[0].cellularNic.phy enableMulticastD2DRangeCheck false
par MultiCell_D2DMultihop.ue5[0].cellularNic.phy multicastD2DRange 1000m
attr unit m
par MultiCell_D2DMultihop.ue5[0].cellularNic.phy minRssiDefault true
par MultiCell_D2DMultihop.ue5[0].cellularNic.phy minRssi -99dB
attr unit dB
par MultiCell_D2DMultihop.ue5[0].cellularNic.phy d2dTxPower 15
par MultiCell_D2DMultihop.ue5[0].cellularNic.phy d2dMulticastCaptureEffect true
par MultiCell_D2DMultihop.ue5[0].cellularNic.phy d2dMulticastCaptureEffectFactor "\"RSRP\""
scalar MultiCell_D2DMultihop.ue5[0].cellularNic.phy averageCqiD2D:mean -nan
attr source averageCqiD2D
attr title "Average Cqi reported in D2D, mean"
attr unit cqi
scalar MultiCell_D2DMultihop.ue5[0].cellularNic.phy averageCqiUl:mean -nan
attr source averageCqiUl
attr title "Average Cqi reported in UL, mean"
attr unit cqi
scalar MultiCell_D2DMultihop.ue5[0].cellularNic.phy averageCqiUl:count 0
attr source averageCqiUl
attr title "Average Cqi reported in UL, count"
attr unit cqi
scalar MultiCell_D2DMultihop.ue5[0].cellularNic.phy averageCqiDl:mean -nan
attr source averageCqiDl
attr title "Average Cqi reported in DL, mean"
attr unit cqi
scalar MultiCell_D2DMultihop.ue5[0].cellularNic.phy averageCqiDl:count 0
attr source averageCqiDl
attr title "Average Cqi reported in DL, count"
attr unit cqi
par MultiCell_D2DMultihop.ue5[0].cellularNic.channelModel[0] typename "\"simu5g.stack.phy.ChannelModel.LteRealisticChannelModel\""
par MultiCell_D2DMultihop.ue5[0].cellularNic.channelModel[0] componentCarrierIndex 0
par MultiCell_D2DMultihop.ue5[0].cellularNic.channelModel[0] shadowing true
par MultiCell_D2DMultihop.ue5[0].cellularNic.channelModel[0] scenario "\"URBAN_MACROCELL\""
par MultiCell_D2DMultihop.ue5[0].cellularNic.channelModel[0] nodeb_height 25
par MultiCell_D2DMultihop.ue5[0].cellularNic.channelModel[0] building_height 20
par MultiCell_D2DMultihop.ue5[0].cellularNic.channelModel[0] inside_building false
par MultiCell_D2DMultihop.ue5[0].cellularNic.channelModel[0] street_wide 20
par MultiCell_D2DMultihop.ue5[0].cellularNic.channelModel[0] ue_height 1.5
par MultiCell_D2DMultihop.ue5[0].cellularNic.channelModel[0] tolerateMaxDistViolation false
par MultiCell_D2DMultihop.ue5[0].cellularNic.channelModel[0] useTorus false
par MultiCell_D2DMultihop.ue5[0].cellularNic.channelModel[0] correlation_distance 50
par MultiCell_D2DMultihop.ue5[0].cellularNic.channelModel[0] targetBler 0.01
par MultiCell_D2DMultihop.ue5[0].cellularNic.channelModel[0] harqReduction 0.2
par MultiCell_D2DMultihop.ue5[0].cellularNic.channelModel[0] lambdaMinTh 0.02
par MultiCell_D2DMultihop.ue5[0].cellularNic.channelModel[0] lambdaMaxTh 0.2
par MultiCell_D2DMultihop.ue5[0].cellularNic.channelModel[0] lambdaRatioTh 20
par MultiCell_D2DMultihop.ue5[0].cellularNic.channelModel[0] antennaGainUe 0
par MultiCell_D2DMultihop.ue5[0].cellularNic.channelModel[0] antennGainEnB 18
par MultiCell_D2DMultihop.ue5[0].cellularNic.channelModel[0] antennGainMicro 5
par MultiCell_D2DMultihop.ue5[0].cellularNic.channelModel[0] thermalNoise -104.5
par MultiCell_D2DMultihop.ue5[0].cellularNic.channelModel[0] ue_noise_figure 7
par MultiCell_D2DMultihop.ue5[0].cellularNic.channelModel[0] bs_noise_figure 5
par MultiCell_D2DMultihop.ue5[0].cellularNic.channelModel[0] cable_loss 2
par MultiCell_D2DMultihop.ue5[0].cellularNic.channelModel[0] dynamic_los false
par MultiCell_D2DMultihop.ue5[0].cellularNic.channelModel[0] fixed_los false
par MultiCell_D2DMultihop.ue5[0].cellularNic.channelModel[0] fading true
par MultiCell_D2DMultihop.ue5[0].cellularNic.channelModel[0] fading_type "\"JAKES\""
par MultiCell_D2DMultihop.ue5[0].cellularNic.channelModel[0] fading_paths 6
par MultiCell_D2DMultihop.ue5[0].cellularNic.channelModel[0] delay_rms 3.63e-07
par MultiCell_D2DMultihop.ue5[0].cellularNic.channelModel[0] bgCell_interference true
par MultiCell_D2DMultihop.ue5[0].cellularNic.channelModel[0] extCell_interference true
par MultiCell_D2DMultihop.ue5[0].cellularNic.channelModel[0] downlink_interference false
par MultiCell_D2DMultihop.ue5[0].cellularNic.channelModel[0] uplink_interference false
par MultiCell_D2DMultihop.ue5[0].cellularNic.channelModel[0] d2d_interference true
par MultiCell_D2DMultihop.ue5[0].cellularNic.channelModel[0] enable_extCell_los true
par MultiCell_D2DMultihop.ue5[0].cellularNic.channelModel[0] useRsrqFromLog false
par MultiCell_D2DMultihop.ue5[0].cellularNic.channelModel[0] rsrqShift 22
par MultiCell_D2DMultihop.ue5[0].cellularNic.channelModel[0] rsrqScale 1
par MultiCell_D2DMultihop.ue5[0].cellularNic.channelModel[0] collectSinrStatistics true
scalar MultiCell_D2DMultihop.ue5[0].cellularNic.channelModel[0] distance:mean -nan
attr source distance
attr title "distance between UE and serving eNB, mean"
attr unit meters
scalar MultiCell_D2DMultihop.ue5[0].cellularNic.channelModel[0] measuredSinrUl:mean -nan
attr source measuredSinrUl
attr title "SINR measured at feedback computation, UL, mean"
attr unit dB
scalar MultiCell_D2DMultihop.ue5[0].cellularNic.channelModel[0] measuredSinrDl:mean -nan
attr source measuredSinrDl
attr title "SINR measured at feedback computation, DL, mean"
attr unit dB
scalar MultiCell_D2DMultihop.ue5[0].cellularNic.channelModel[0] rcvdSinrUl:mean -nan
attr source rcvdSinrUl
attr title "SINR measured at packet reception, UL, mean"
attr unit dB
scalar MultiCell_D2DMultihop.ue5[0].cellularNic.channelModel[0] rcvdSinrDl:mean -nan
attr source rcvdSinrDl
attr title "SINR measured at packet reception, DL, mean"
attr unit dB
par MultiCell_D2DMultihop.ue5[0].cellularNic.dlFbGen typename "\"simu5g.stack.phy.feedback.LteDlFeedbackGenerator\""
par MultiCell_D2DMultihop.ue5[0].cellularNic.dlFbGen feedbackType "\"ALLBANDS\""
par MultiCell_D2DMultihop.ue5[0].cellularNic.dlFbGen rbAllocationType "\"localized\""
par MultiCell_D2DMultihop.ue5[0].cellularNic.dlFbGen fbPeriod 500
par MultiCell_D2DMultihop.ue5[0].cellularNic.dlFbGen fbDelay 1
par MultiCell_D2DMultihop.ue5[0].cellularNic.dlFbGen usePeriodic true
par MultiCell_D2DMultihop.ue5[0].cellularNic.dlFbGen initialTxMode "\"SINGLE_ANTENNA_PORT0\""
par MultiCell_D2DMultihop.ue5[0].cellularNic.dlFbGen feedbackGeneratorType "\"IDEAL\""
par MultiCell_D2DMultihop.ue5[0].cellularNic typename "\"simu5g.stack.LteNicUeD2D\""
par MultiCell_D2DMultihop.ue5[0].cellularNic displayStringTextFormat "\"%a (%i)\\n%m\""
par MultiCell_D2DMultihop.ue5[0].cellularNic recordPcap false
par MultiCell_D2DMultihop.ue5[0].cellularNic numPcapRecorders 0
par MultiCell_D2DMultihop.ue5[0].cellularNic interfaceTableModule "\"MultiCell_D2DMultihop.ue5[0].interfaceTable\""
par MultiCell_D2DMultihop.ue5[0].cellularNic routingTableModule "\"^.ipv4.routingTable\""
par MultiCell_D2DMultihop.ue5[0].cellularNic LtePdcpRrcType "\"LtePdcpRrcUeD2D\""
par MultiCell_D2DMultihop.ue5[0].cellularNic LteMacType "\"LteMacUeD2D\""
par MultiCell_D2DMultihop.ue5[0].cellularNic PacketFlowManagerType "\"PacketFlowManagerUe\""
par MultiCell_D2DMultihop.ue5[0].cellularNic hasRNISupport false
par MultiCell_D2DMultihop.ue5[0].cellularNic LtePhyType "\"LtePhyUeD2D\""
par MultiCell_D2DMultihop.ue5[0].cellularNic nodeType "\"UE\""
par MultiCell_D2DMultihop.ue5[0].cellularNic processingDelayIn 0s
attr unit s
par MultiCell_D2DMultihop.ue5[0].cellularNic processingDelayOut 0s
attr unit s
par MultiCell_D2DMultihop.ue5[0].cellularNic LteChannelModelType "\"LteRealisticChannelModel\""
par MultiCell_D2DMultihop.ue5[0].cellularNic d2dCapable true
par MultiCell_D2DMultihop.ue5[0].cellularNic dualConnectivityEnabled false
par MultiCell_D2DMultihop.ue5[0].cellularNic numCarriers 1
par MultiCell_D2DMultihop.ue5[0].cellularNic address "\"0A-AA-00-00-00-0A\""
par MultiCell_D2DMultihop.ue5[0].cellularNic d2dInitialMode false
par MultiCell_D2DMultihop.ue5[0].at typename "\"inet.common.MessageDispatcher\""
par MultiCell_D2DMultihop.ue5[0].at displayStringTextFormat "\"processed %p pk (%l)\""
par MultiCell_D2DMultihop.ue5[0].tn typename "\"inet.common.MessageDispatcher\""
par MultiCell_D2DMultihop.ue5[0].tn displayStringTextFormat "\"processed %p pk (%l)\""
par MultiCell_D2DMultihop.ue5[0].nl typename "\"inet.common.MessageDispatcher\""
par MultiCell_D2DMultihop.ue5[0].nl displayStringTextFormat "\"processed %p pk (%l)\""
par MultiCell_D2DMultihop.ue5[0] typename "\"simu5g.nodes.Ue\""
par MultiCell_D2DMultihop.ue5[0] mobilityType "\"LinearMobility\""
par MultiCell_D2DMultihop.ue5[0] numApps 1
par MultiCell_D2DMultihop.ue5[0] hasUdp true
par MultiCell_D2DMultihop.ue5[0] hasTcp true
par MultiCell_D2DMultihop.ue5[0] hasSctp false
par MultiCell_D2DMultihop.ue5[0] nodeType "\"UE\""
par MultiCell_D2DMultihop.ue5[0] masterId 5
par MultiCell_D2DMultihop.ue5[0] macNodeId 1029
par MultiCell_D2DMultihop.ue5[0] macCellId 5
par MultiCell_D2DMultihop.ue5[0] nicType "\"LteNicUeD2D\""
par MultiCell_D2DMultihop.ue5[0] hasIpv4 true
par MultiCell_D2DMultihop.ue5[0] hasIpv6 false
par MultiCell_D2DMultihop.ue5[0] numEthInterfaces 0
par MultiCell_D2DMultihop.ue5[0] extHostAddress "\"\""
par MultiCell_D2DMultihop.ue5[0] numLoInterfaces 1
par MultiCell_D2DMultihop.ue5[0] numPcapRecorders 0
par MultiCell_D2DMultihop.ue5[0] hasRNISupport false
par MultiCell_D2DMultihop.eventGenerator typename "\"simu5g.apps.d2dMultihop.eventGenerator.EventGenerator\""
par MultiCell_D2DMultihop.eventGenerator startTime 0.1s
attr unit s
par MultiCell_D2DMultihop.eventGenerator eventPeriod 1s
attr unit s
par MultiCell_D2DMultihop.eventGenerator singleEventSource true
par MultiCell_D2DMultihop.eventGenerator forceStartingCoord false
par MultiCell_D2DMultihop.eventGenerator startingCoordX -1m
attr unit m
par MultiCell_D2DMultihop.eventGenerator startingCoordY -1m
attr unit m
par MultiCell_D2DMultihop.eventGenerator startingUe 0
par MultiCell_D2DMultihop.d2dMultihopStatistics typename "\"simu5g.apps.d2dMultihop.statistics.MultihopD2DStatistics\""
statistic MultiCell_D2DMultihop.d2dMultihopStatistics d2dMultihopEventCompleteDeliveries:stats
field count 0
field mean -nan
field stddev nan
field min nan
field max nan
field sum 0
field sqrsum 0
attr source d2dMultihopEventCompleteDeliveries
attr title "Avg complete-deliveries within the area, stats"
attr unit ""
statistic MultiCell_D2DMultihop.d2dMultihopStatistics d2dMultihopEventRcvdDupMsg:stats
field count 0
field mean -nan
field stddev nan
field min nan
field max nan
field sum 0
field sqrsum 0
attr source d2dMultihopEventRcvdDupMsg
attr title "Avg num of duplicates within the area, stats"
attr unit ""
scalar MultiCell_D2DMultihop.d2dMultihopStatistics d2dMultihopEventTrickleSuppressedMsg:mean -nan
attr source d2dMultihopEventTrickleSuppressedMsg
attr title "Avg suppressed transmissions for broadcasting a message, mean"
attr unit ""
scalar MultiCell_D2DMultihop.d2dMultihopStatistics d2dMultihopEventTrickleSuppressedMsg:sum 0
attr source d2dMultihopEventTrickleSuppressedMsg
attr title "Avg suppressed transmissions for broadcasting a message, sum"
attr unit ""
scalar MultiCell_D2DMultihop.d2dMultihopStatistics d2dMultihopEventTrickleSuppressedMsg:min nan
attr source d2dMultihopEventTrickleSuppressedMsg
attr title "Avg suppressed transmissions for broadcasting a message, min"
attr unit ""
scalar MultiCell_D2DMultihop.d2dMultihopStatistics d2dMultihopEventTrickleSuppressedMsg:max nan
attr source d2dMultihopEventTrickleSuppressedMsg
attr title "Avg suppressed transmissions for broadcasting a message, max"
attr unit ""
scalar MultiCell_D2DMultihop.d2dMultihopStatistics d2dMultihopEventSentMsg:mean -nan
attr source d2dMultihopEventSentMsg
attr title "Avg transmissions for broadcasting a message, mean"
attr unit ""
scalar MultiCell_D2DMultihop.d2dMultihopStatistics d2dMultihopEventSentMsg:sum 0
attr source d2dMultihopEventSentMsg
attr title "Avg transmissions for broadcasting a message, sum"
attr unit ""
scalar MultiCell_D2DMultihop.d2dMultihopStatistics d2dMultihopEventSentMsg:min nan
attr source d2dMultihopEventSentMsg
attr title "Avg transmissions for broadcasting a message, min"
attr unit ""
scalar MultiCell_D2DMultihop.d2dMultihopStatistics d2dMultihopEventSentMsg:max nan
attr source d2dMultihopEventSentMsg
attr title "Avg transmissions for broadcasting a message, max"
attr unit ""
scalar MultiCell_D2DMultihop.d2dMultihopStatistics d2dMultihopEventDelay95Per:mean -nan
attr source d2dMultihopEventDelay95Per
attr title "95th percentile of the delay of broadcasting within the area, mean"
attr unit ""
scalar MultiCell_D2DMultihop.d2dMultihopStatistics d2dMultihopEventDelay95Per:sum 0
attr source d2dMultihopEventDelay95Per
attr title "95th percentile of the delay of broadcasting within the area, sum"
attr unit ""
scalar MultiCell_D2DMultihop.d2dMultihopStatistics d2dMultihopEventDelay95Per:min nan
attr source d2dMultihopEventDelay95Per
attr title "95th percentile of the delay of broadcasting within the area, min"
attr unit ""
scalar MultiCell_D2DMultihop.d2dMultihopStatistics d2dMultihopEventDelay95Per:max nan
attr source d2dMultihopEventDelay95Per
attr title "95th percentile of the delay of broadcasting within the area, max"
attr unit ""
scalar MultiCell_D2DMultihop.d2dMultihopStatistics d2dMultihopEventDelay:mean -nan
attr source d2dMultihopEventDelay
attr title "Avg delay of broadcasting within the area, mean"
attr unit ""
scalar MultiCell_D2DMultihop.d2dMultihopStatistics d2dMultihopEventDelay:sum 0
attr source d2dMultihopEventDelay
attr title "Avg delay of broadcasting within the area, sum"
attr unit ""
scalar MultiCell_D2DMultihop.d2dMultihopStatistics d2dMultihopEventDelay:min nan
attr source d2dMultihopEventDelay
attr title "Avg delay of broadcasting within the area, min"
attr unit ""
scalar MultiCell_D2DMultihop.d2dMultihopStatistics d2dMultihopEventDelay:max nan
attr source d2dMultihopEventDelay
attr title "Avg delay of broadcasting within the area, max"
attr unit ""
scalar MultiCell_D2DMultihop.d2dMultihopStatistics d2dMultihopEventDeliveryRatio:mean -nan
attr source d2dMultihopEventDeliveryRatio
attr title "Avg delivery ratio within the area, mean"
attr unit ""
scalar MultiCell_D2DMultihop.d2dMultihopStatistics d2dMultihopEventDeliveryRatio:sum 0
attr source d2dMultihopEventDeliveryRatio
attr title "Avg delivery ratio within the area, sum"
attr unit ""
scalar MultiCell_D2DMultihop.d2dMultihopStatistics d2dMultihopEventDeliveryRatio:min nan
attr source d2dMultihopEventDeliveryRatio
attr title "Avg delivery ratio within the area, min"
attr unit ""
scalar MultiCell_D2DMultihop.d2dMultihopStatistics d2dMultihopEventDeliveryRatio:max nan
attr source d2dMultihopEventDeliveryRatio
attr title "Avg delivery ratio within the area, max"
attr unit ""
par MultiCell_D2DMultihop typename "\"simu5g.simulations.networks.MultiCell_D2DMultihop\""
par MultiCell_D2DMultihop numUe1 1
par MultiCell_D2DMultihop numUe2 1
par MultiCell_D2DMultihop numUe3 1
par MultiCell_D2DMultihop numUe4 1
par MultiCell_D2DMultihop numUe5 1

